@<TRIPOS>MOLECULE
Amoxicillin_Aminopenicillin_Active
 25 27 0 0 0
SMALL
GASTEIGER

@<TRIPOS>ATOM
      1 C           2.2437    0.1244   -1.7892 C.3     1  UNL1        0.0131
      2 C           3.1462   -0.0778   -0.5878 C.3     1  UNL1        0.0681
      3 CA          3.1894    1.2472    0.2067 C.3     1  UNL1        0.1888
      4 N           2.1880    1.0739    1.2240 N.am    1  UNL1       -0.2594
      5 C           1.7976   -0.2064    1.7257 C.3     1  UNL1        0.1529
      6 S           2.3993   -1.3999    0.4673 S.3     1  UNL1       -0.1184
      7 CA          0.3880    0.1256    1.7416 C.3     1  UNL1        0.1996
      8 C           0.7800    1.5093    1.3311 C.2     1  UNL1        0.2491
      9 O           0.1582    2.5777    1.0948 O.2     1  UNL1       -0.2729
     10 N          -0.3544   -0.5030    0.6561 N.am    1  UNL1       -0.1937
     11 C          -1.3223   -1.5283    0.8880 C.2     1  UNL1        0.2635
     12 O          -1.5833   -1.9058    2.0612 O.2     1  UNL1       -0.2714
     13 CA         -2.0414   -2.1560   -0.2619 C.3     1  UNL1        0.1915
     14 C          -2.9898   -1.1983   -0.9145 C.ar    1  UNL1        0.0040
     15 C          -4.3665   -1.4287   -0.8168 C.ar    1  UNL1        0.0009
     16 C          -5.2716   -0.5468   -1.4149 C.ar    1  UNL1        0.0418
     17 C          -4.8029    0.5698   -2.1134 C.ar    1  UNL1        0.1957
     18 C          -3.4288    0.8052   -2.2148 C.ar    1  UNL1        0.0418
     19 C          -2.5232   -0.0761   -1.6173 C.ar    1  UNL1        0.0009
     20 O          -5.7022    1.4449   -2.7066 O.3     1  UNL1       -0.2866
     21 N          -1.0934   -2.6835   -1.2304 N.3     1  UNL1       -0.1182
     22 C           4.5084    1.5342    0.8629 C.2     1  UNL1        0.3833
     23 O           5.1554    2.5624    0.5362 O.co2   1  UNL1       -0.2438
     24 OXT         5.0215    0.6740    1.8270 O.co2   1  UNL1       -0.2438
     25 C           4.5043   -0.5378   -1.1005 C.3     1  UNL1        0.0131
@<TRIPOS>BOND
     1     1     2    1
     2     2     3    1
     3     3     4    1
     4     4     5    1
     5     5     6    1
     6     5     7    1
     7     7     8    1
     8     8     9    2
     9     7    10    1
    10    10    11   am
    11    11    12    2
    12    11    13    1
    13    13    14    1
    14    14    15   ar
    15    15    16   ar
    16    16    17   ar
    17    17    18   ar
    18    18    19   ar
    19    17    20    1
    20    13    21    1
    21     3    22    1
    22    22    23   ar
    23    22    24   ar
    24     2    25    1
    25     6     2    1
    26     8     4   am
    27    19    14   ar
@<TRIPOS>MOLECULE
Ampicillin_Aminopenicillin_Active
 24 26 0 0 0
SMALL
GASTEIGER

@<TRIPOS>ATOM
      1 C          -4.4450   -1.4106   -0.5078 C.3     1  UNL1        0.0131
      2 C          -3.0345   -1.1209   -0.0102 C.3     1  UNL1        0.0681
      3 CA         -2.8226    0.3551    0.3955 C.3     1  UNL1        0.1888
      4 N          -2.1340    0.9601   -0.7148 N.am    1  UNL1       -0.2594
      5 C          -1.7695    0.2309   -1.8904 C.3     1  UNL1        0.1529
      6 S          -1.8601   -1.5233   -1.3785 S.3     1  UNL1       -0.1184
      7 CA         -0.4758    0.8716   -1.9942 C.3     1  UNL1        0.1996
      8 C          -0.8751    1.7288   -0.8340 C.2     1  UNL1        0.2491
      9 O          -0.3354    2.6626   -0.1854 O.2     1  UNL1       -0.2729
     10 N           0.6769    0.0083   -1.6933 N.am    1  UNL1       -0.1937
     11 C           1.0719   -0.5498   -0.4302 C.2     1  UNL1        0.2635
     12 O           0.4142   -0.3173    0.6203 O.2     1  UNL1       -0.2714
     13 CA          2.3002   -1.3997   -0.3698 C.3     1  UNL1        0.1915
     14 C           3.4546   -0.6622    0.2338 C.ar    1  UNL1        0.0038
     15 C           3.4472   -0.2779    1.5839 C.ar    1  UNL1       -0.0024
     16 C           4.5355    0.4141    2.1231 C.ar    1  UNL1       -0.0003
     17 C           5.6345    0.7252    1.3172 C.ar    1  UNL1       -0.0000
     18 C           5.6455    0.3445   -0.0279 C.ar    1  UNL1       -0.0003
     19 C           4.5574   -0.3477   -0.5681 C.ar    1  UNL1       -0.0024
     20 N           2.0388   -2.6332    0.3555 N.3     1  UNL1       -0.1182
     21 C          -4.0593    1.1180    0.7842 C.2     1  UNL1        0.3833
     22 O          -4.5100    2.0366    0.0493 O.co2   1  UNL1       -0.2438
     23 OXT        -4.7167    0.8006    1.9653 O.co2   1  UNL1       -0.2438
     24 C          -2.7383   -2.0141    1.1767 C.3     1  UNL1        0.0131
@<TRIPOS>BOND
     1     1     2    1
     2     2     3    1
     3     3     4    1
     4     4     5    1
     5     5     6    1
     6     5     7    1
     7     7     8    1
     8     8     9    2
     9     7    10    1
    10    10    11   am
    11    11    12    2
    12    11    13    1
    13    13    14    1
    14    14    15   ar
    15    15    16   ar
    16    16    17   ar
    17    17    18   ar
    18    18    19   ar
    19    13    20    1
    20     3    21    1
    21    21    22   ar
    22    21    23   ar
    23     2    24    1
    24     6     2    1
    25     8     4   am
    26    19    14   ar
@<TRIPOS>MOLECULE
Pivampicillin_Aminopenicillin_Active
 32 34 0 0 0
SMALL
GASTEIGER

@<TRIPOS>ATOM
      1 C           2.1866    1.4398    1.1016 C.3     1  UNL1        0.0131
      2 C           0.9315    0.6086    1.3384 C.3     1  UNL1        0.0679
      3 C           0.9943   -0.7906    0.6871 C.3     1  UNL1        0.1845
      4 N           0.2292   -0.6779   -0.5275 N.am    1  UNL1       -0.2596
      5 C          -0.4022    0.5377   -0.9369 C.3     1  UNL1        0.1529
      6 S          -0.4969    1.5213    0.6057 S.3     1  UNL1       -0.1184
      7 C          -1.5998   -0.1313   -1.3982 C.3     1  UNL1        0.1996
      8 C          -0.9260   -1.4255   -1.0662 C.2     1  UNL1        0.2491
      9 O          -1.2420   -2.6413   -1.1434 O.2     1  UNL1       -0.2729
     10 N          -2.7443    0.0739   -0.5165 N.am    1  UNL1       -0.1937
     11 C          -4.0246   -0.5023   -0.7762 C.2     1  UNL1        0.2635
     12 O          -4.2161   -1.1918   -1.8152 O.2     1  UNL1       -0.2714
     13 C          -5.1472   -0.2431    0.1772 C.3     1  UNL1        0.1915
     14 C          -6.0558    0.8372   -0.3206 C.ar    1  UNL1        0.0038
     15 C          -6.8426    0.6549   -1.4685 C.ar    1  UNL1       -0.0024
     16 C          -7.6800    1.6808   -1.9162 C.ar    1  UNL1       -0.0003
     17 C          -7.7346    2.8920   -1.2204 C.ar    1  UNL1       -0.0000
     18 C          -6.9520    3.0776   -0.0769 C.ar    1  UNL1       -0.0003
     19 C          -6.1142    2.0520    0.3716 C.ar    1  UNL1       -0.0024
     20 N          -5.8930   -1.4633    0.4437 N.3     1  UNL1       -0.1182
     21 C           2.3732   -1.3397    0.4446 C.2     1  UNL1        0.3387
     22 O           2.8135   -1.4683   -0.7314 O.2     1  UNL1       -0.2481
     23 O           3.1620   -1.6954    1.5406 O.3     1  UNL1       -0.4069
     24 C           4.5001   -2.1506    1.3954 C.3     1  UNL1        0.4332
     25 O           5.3274   -1.0771    0.9696 O.3     1  UNL1       -0.4081
     26 C           6.6933   -1.2456    0.7272 C.2     1  UNL1        0.3186
     27 O           7.2216   -2.3860    0.8520 O.2     1  UNL1       -0.2500
     28 C           7.5165   -0.0847    0.2383 C.3     1  UNL1        0.0897
     29 C           8.9299   -0.1566    0.7897 C.3     1  UNL1        0.0111
     30 C           7.5759   -0.1158   -1.2757 C.3     1  UNL1        0.0111
     31 C           6.9018    1.2325    0.6770 C.3     1  UNL1        0.0111
     32 C           0.7145    0.4589    2.8299 C.3     1  UNL1        0.0131
@<TRIPOS>BOND
     1     1     2    1
     2     2     3    1
     3     3     4    1
     4     4     5    1
     5     5     6    1
     6     5     7    1
     7     7     8    1
     8     8     9    2
     9     7    10    1
    10    10    11   am
    11    11    12    2
    12    11    13    1
    13    13    14    1
    14    14    15   ar
    15    15    16   ar
    16    16    17   ar
    17    17    18   ar
    18    18    19   ar
    19    13    20    1
    20     3    21    1
    21    21    22    2
    22    21    23    1
    23    23    24    1
    24    24    25    1
    25    25    26    1
    26    26    27    2
    27    26    28    1
    28    28    29    1
    29    28    30    1
    30    28    31    1
    31     2    32    1
    32     6     2    1
    33     8     4   am
    34    19    14   ar
@<TRIPOS>MOLECULE
Hetacillin_Aminopenicillin_Active
 27 30 0 0 0
SMALL
GASTEIGER

@<TRIPOS>ATOM
      1 C           0.8989    0.6362   -2.7160 C.3     1  UNL1        0.0131
      2 C           1.9559    0.3082   -1.6821 C.3     1  UNL1        0.0681
      3 CA          2.2373    1.5717   -0.8341 C.3     1  UNL1        0.1888
      4 N           2.2452    1.1224    0.5320 N.am    1  UNL1       -0.2596
      5 C           2.0599   -0.2452    0.9053 C.3     1  UNL1        0.1512
      6 S           1.3103   -1.0198   -0.5723 S.3     1  UNL1       -0.1185
      7 CA          1.2123    0.0839    2.0334 C.3     1  UNL1        0.1818
      8 C           1.4899    1.5256    1.7379 C.2     1  UNL1        0.2474
      9 O           1.1573    2.6232    2.2561 O.2     1  UNL1       -0.2730
     10 N          -0.2108   -0.2619    1.8578 N.am    1  UNL1       -0.2591
     11 C          -1.1754    0.3448    1.0207 C.2     1  UNL1        0.2470
     12 O          -0.9435    1.3238    0.2621 O.2     1  UNL1       -0.2730
     13 CA         -2.4868   -0.3064    1.1586 C.3     1  UNL1        0.1727
     14 N          -2.2953   -1.3549    2.1701 N.3     1  UNL1       -0.1907
     15 C          -0.8863   -1.3145    2.6055 C.3     1  UNL1        0.1218
     16 C          -0.8306   -1.0212    4.0944 C.3     1  UNL1        0.0382
     17 C          -0.2378   -2.6597    2.3305 C.3     1  UNL1        0.0382
     18 C          -2.9421   -0.9070   -0.1371 C.ar    1  UNL1        0.0023
     19 C          -4.1315   -0.4528   -0.7172 C.ar    1  UNL1       -0.0025
     20 C          -4.5756   -0.9939   -1.9275 C.ar    1  UNL1       -0.0003
     21 C          -3.8314   -1.9926   -2.5625 C.ar    1  UNL1       -0.0000
     22 C          -2.6432   -2.4518   -1.9873 C.ar    1  UNL1       -0.0003
     23 C          -2.1989   -1.9118   -0.7773 C.ar    1  UNL1       -0.0025
     24 C           3.4904    2.3298   -1.1559 C.2     1  UNL1        0.3833
     25 O           3.4115    3.4487   -1.7254 O.co2   1  UNL1       -0.2438
     26 OXT         4.7366    1.8127   -0.8215 O.co2   1  UNL1       -0.2438
     27 C           3.1840   -0.2377   -2.3983 C.3     1  UNL1        0.0131
@<TRIPOS>BOND
     1     1     2    1
     2     2     3    1
     3     3     4    1
     4     4     5    1
     5     5     6    1
     6     5     7    1
     7     7     8    1
     8     8     9    2
     9     7    10    1
    10    10    11   am
    11    11    12    2
    12    11    13    1
    13    13    14    1
    14    14    15    1
    15    15    16    1
    16    15    17    1
    17    13    18    1
    18    18    19   ar
    19    19    20   ar
    20    20    21   ar
    21    21    22   ar
    22    22    23   ar
    23     3    24    1
    24    24    25   ar
    25    24    26   ar
    26     2    27    1
    27     6     2    1
    28     8     4   am
    29    15    10    1
    30    23    18   ar
@<TRIPOS>MOLECULE
Bacampicillin_Aminopenicillin_Active
 32 34 0 0 0
SMALL
GASTEIGER

@<TRIPOS>ATOM
      1 C          -8.7961   -0.0235   -0.3209 C.3     1  UNL1        0.0514
      2 C          -8.0773    1.0934   -1.0525 C.3     1  UNL1        0.2122
      3 O          -6.7017    1.0747   -0.7098 O.3     1  UNL1       -0.4180
      4 C          -5.7106    0.8032   -1.6487 C.2     1  UNL1        0.5143
      5 O          -6.0162    0.4779   -2.8245 O.2     1  UNL1       -0.2027
      6 O          -4.3766    0.8647   -1.2513 O.3     1  UNL1       -0.3824
      7 C          -3.3071    0.5852   -2.1432 C.3     1  UNL1        0.3476
      8 C          -2.9908    1.8212   -2.9647 C.3     1  UNL1        0.0998
      9 O          -2.1527    0.2107   -1.4048 O.3     1  UNL1       -0.4123
     10 C          -2.1016   -0.9484   -0.6261 C.2     1  UNL1        0.3386
     11 O          -3.0985   -1.7219   -0.5533 O.2     1  UNL1       -0.2481
     12 C          -0.8603   -1.2841    0.1431 C.3     1  UNL1        0.1845
     13 C           0.4358   -1.3151   -0.6944 C.3     1  UNL1        0.0679
     14 S           1.3260    0.2908   -0.5010 S.3     1  UNL1       -0.1184
     15 C           0.2821    0.8265    0.9063 C.3     1  UNL1        0.1529
     16 N          -0.6262   -0.2554    1.1151 N.am    1  UNL1       -0.2596
     17 C          -0.1949   -0.3004    2.5265 C.2     1  UNL1        0.2491
     18 O          -0.5033   -0.9964    3.5250 O.2     1  UNL1       -0.2729
     19 C           0.8341    0.7459    2.2449 C.3     1  UNL1        0.1996
     20 N           2.1556    0.1324    2.2830 N.am    1  UNL1       -0.1937
     21 C           3.3647    0.8848    2.1754 C.2     1  UNL1        0.2635
     22 O           3.3317    2.1430    2.0904 O.2     1  UNL1       -0.2714
     23 C           4.6566    0.1480    2.0492 C.3     1  UNL1        0.1915
     24 C           5.0147   -0.0930    0.6184 C.ar    1  UNL1        0.0038
     25 C           5.3333    0.9670   -0.2435 C.ar    1  UNL1       -0.0024
     26 C           5.6314    0.7105   -1.5888 C.ar    1  UNL1       -0.0003
     27 C           5.6102   -0.6030   -2.0711 C.ar    1  UNL1       -0.0000
     28 C           5.2880   -1.6609   -1.2151 C.ar    1  UNL1       -0.0003
     29 C           4.9882   -1.4059    0.1278 C.ar    1  UNL1       -0.0024
     30 N           5.7254    0.8360    2.7561 N.3     1  UNL1       -0.1182
     31 C           0.2083   -1.6006   -2.1719 C.3     1  UNL1        0.0131
     32 C           1.3280   -2.4075   -0.1434 C.3     1  UNL1        0.0131
@<TRIPOS>BOND
     1     1     2    1
     2     2     3    1
     3     3     4    1
     4     4     5    2
     5     4     6    1
     6     6     7    1
     7     7     8    1
     8     7     9    1
     9     9    10    1
    10    10    11    2
    11    12    10    1
    12    12    13    1
    13    13    14    1
    14    15    14    1
    15    15    16    1
    16    16    17   am
    17    17    18    2
    18    17    19    1
    19    19    20    1
    20    20    21   am
    21    21    22    2
    22    21    23    1
    23    23    24    1
    24    24    25   ar
    25    25    26   ar
    26    26    27   ar
    27    27    28   ar
    28    28    29   ar
    29    23    30    1
    30    13    31    1
    31    13    32    1
    32    16    12    1
    33    19    15    1
    34    29    24   ar
@<TRIPOS>MOLECULE
Metampicillin_Aminopenicillin_Active
 25 27 0 0 0
SMALL
GASTEIGER

@<TRIPOS>ATOM
      1 C          -3.7377    2.2116    1.9770 C.3     1  UNL1        0.0131
      2 C          -2.8867    1.3644    1.0405 C.3     1  UNL1        0.0681
      3 CA         -3.6880    0.3116    0.2414 C.3     1  UNL1        0.1888
      4 N          -2.7931   -0.8102    0.1521 N.am    1  UNL1       -0.2594
      5 C          -1.7703   -1.0730    1.1166 C.3     1  UNL1        0.1529
      6 S          -1.5548    0.5186    2.0053 S.3     1  UNL1       -0.1184
      7 CA         -0.7915   -1.4397    0.1157 C.3     1  UNL1        0.1996
      8 C          -1.8737   -1.2801   -0.9054 C.2     1  UNL1        0.2491
      9 O          -1.9476   -1.4134   -2.1547 O.2     1  UNL1       -0.2729
     10 N           0.2303   -0.4169   -0.0821 N.am    1  UNL1       -0.1932
     11 C           1.2843   -0.5594   -1.0344 C.2     1  UNL1        0.2684
     12 O           1.3879   -1.6132   -1.7202 O.2     1  UNL1       -0.2709
     13 CA          2.2855    0.5414   -1.1825 C.3     1  UNL1        0.2029
     14 C           3.5661    0.2057   -0.4751 C.ar    1  UNL1        0.0086
     15 C           4.4280   -0.7887   -0.9636 C.ar    1  UNL1       -0.0019
     16 C           5.6086   -1.0925   -0.2794 C.ar    1  UNL1       -0.0002
     17 C           5.9312   -0.4077    0.8957 C.ar    1  UNL1       -0.0000
     18 C           5.0731    0.5801    1.3877 C.ar    1  UNL1       -0.0002
     19 C           3.8921    0.8848    0.7041 C.ar    1  UNL1       -0.0019
     20 N           2.5115    0.8387   -2.5769 N.2     1  UNL1       -0.2554
     21 C           3.0279    1.9571   -2.9337 C.2     1  UNL1        0.1142
     22 C          -4.9620   -0.1303    0.9001 C.2     1  UNL1        0.3833
     23 O          -6.0624    0.0707    0.3246 O.co2   1  UNL1       -0.2438
     24 OXT        -4.9370   -0.7584    2.1401 O.co2   1  UNL1       -0.2438
     25 C          -2.2217    2.2990    0.0492 C.3     1  UNL1        0.0131
@<TRIPOS>BOND
     1     1     2    1
     2     2     3    1
     3     3     4    1
     4     4     5    1
     5     5     6    1
     6     5     7    1
     7     7     8    1
     8     8     9    2
     9     7    10    1
    10    10    11   am
    11    11    12    2
    12    11    13    1
    13    13    14    1
    14    14    15   ar
    15    15    16   ar
    16    16    17   ar
    17    17    18   ar
    18    18    19   ar
    19    13    20    1
    20    20    21    2
    21     3    22    1
    22    22    23   ar
    23    22    24   ar
    24     2    25    1
    25     6     2    1
    26     8     4   am
    27    19    14   ar
@<TRIPOS>MOLECULE
Talampicillin_Aminopenicillin_Active
 34 38 0 0 0
SMALL
GASTEIGER

@<TRIPOS>ATOM
      1 C          -1.0186    2.3557    1.8248 C.3     1  UNL1        0.0131
      2 C          -0.0201    1.3933    1.1952 C.3     1  UNL1        0.0679
      3 C          -0.5420    0.6822   -0.0752 C.3     1  UNL1        0.1846
      4 N          -0.0208   -0.6534    0.0300 N.am    1  UNL1       -0.2596
      5 C           0.3045   -1.2720    1.2769 C.3     1  UNL1        0.1529
      6 S           0.4924    0.1294    2.4461 S.3     1  UNL1       -0.1184
      7 C           1.5003   -1.9011    0.7587 C.3     1  UNL1        0.1996
      8 C           1.1385   -1.3379   -0.5795 C.2     1  UNL1        0.2491
      9 O           1.6502   -1.3702   -1.7289 O.2     1  UNL1       -0.2729
     10 N           2.7287   -1.2818    1.2443 N.am    1  UNL1       -0.1937
     11 C           4.0246   -1.7455    0.8556 C.2     1  UNL1        0.2635
     12 O           4.1431   -2.7310    0.0797 O.2     1  UNL1       -0.2714
     13 C           5.2525   -1.0497    1.3476 C.3     1  UNL1        0.1915
     14 C           5.4497    0.2698    0.6686 C.ar    1  UNL1        0.0038
     15 C           6.5302    0.4325   -0.2057 C.ar    1  UNL1       -0.0024
     16 C           6.7316    1.6541   -0.8555 C.ar    1  UNL1       -0.0003
     17 C           5.8524    2.7181   -0.6333 C.ar    1  UNL1       -0.0000
     18 C           4.7717    2.5615    0.2392 C.ar    1  UNL1       -0.0003
     19 C           4.5697    1.3405    0.8891 C.ar    1  UNL1       -0.0024
     20 N           5.2064   -0.8857    2.7920 N.3     1  UNL1       -0.1182
     21 C          -2.0375    0.6200   -0.1923 C.2     1  UNL1        0.3388
     22 O          -2.7155    0.0023    0.6744 O.2     1  UNL1       -0.2481
     23 O          -2.6563    1.2537   -1.2769 O.3     1  UNL1       -0.4090
     24 C          -4.0656    1.2624   -1.5166 C.3     1  UNL1        0.3704
     25 C          -4.6109   -0.1256   -1.7070 C.ar    1  UNL1        0.0676
     26 C          -4.2646   -1.0748   -2.6685 C.ar    1  UNL1        0.0032
     27 C          -4.9282   -2.3141   -2.6456 C.ar    1  UNL1       -0.0001
     28 C          -5.9166   -2.5792   -1.6753 C.ar    1  UNL1        0.0002
     29 C          -6.2537   -1.6080   -0.7176 C.ar    1  UNL1        0.0064
     30 C          -5.5798   -0.3899   -0.7682 C.ar    1  UNL1        0.0788
     31 C          -5.6846    0.7815    0.0630 C.2     1  UNL1        0.3439
     32 O          -6.4594    0.9261    1.0442 O.2     1  UNL1       -0.2448
     33 O          -4.7800    1.7437   -0.3699 O.3     1  UNL1       -0.4070
     34 C           1.2076    2.1929    0.8099 C.3     1  UNL1        0.0131
@<TRIPOS>BOND
     1     1     2    1
     2     2     3    1
     3     3     4    1
     4     4     5    1
     5     5     6    1
     6     5     7    1
     7     7     8    1
     8     8     9    2
     9     7    10    1
    10    10    11   am
    11    11    12    2
    12    11    13    1
    13    13    14    1
    14    14    15   ar
    15    15    16   ar
    16    16    17   ar
    17    17    18   ar
    18    18    19   ar
    19    13    20    1
    20     3    21    1
    21    21    22    2
    22    21    23    1
    23    23    24    1
    24    24    25    1
    25    25    26   ar
    26    26    27   ar
    27    27    28   ar
    28    28    29   ar
    29    29    30   ar
    30    30    31    1
    31    31    32    2
    32    31    33    1
    33     2    34    1
    34     6     2    1
    35     8     4   am
    36    19    14   ar
    37    33    24    1
    38    30    25   ar
@<TRIPOS>MOLECULE
Epicillin_Aminopenicillin_Active
 24 26 0 0 0
SMALL
GASTEIGER

@<TRIPOS>ATOM
      1 C          -4.5523   -1.1424   -0.0600 C.3     1  UNL1        0.0131
      2 C          -3.0899   -0.8649    0.2645 C.3     1  UNL1        0.0681
      3 CA         -2.7741    0.6403    0.4187 C.3     1  UNL1        0.1888
      4 N          -2.1641    1.0307   -0.8248 N.am    1  UNL1       -0.2594
      5 C          -1.9442    0.1144   -1.9012 C.3     1  UNL1        0.1529
      6 S          -2.0678   -1.5357   -1.1206 S.3     1  UNL1       -0.1184
      7 CA         -0.6374    0.6542   -2.2111 C.3     1  UNL1        0.1996
      8 C          -0.8876    1.6967   -1.1666 C.2     1  UNL1        0.2491
      9 O          -0.2476    2.6827   -0.7169 O.2     1  UNL1       -0.2729
     10 N           0.4970   -0.2220   -1.8801 N.am    1  UNL1       -0.1937
     11 C           0.9812   -0.6090   -0.5844 C.2     1  UNL1        0.2632
     12 O           0.4362   -0.1828    0.4699 O.2     1  UNL1       -0.2714
     13 CA          2.1658   -1.5157   -0.4988 C.3     1  UNL1        0.1876
     14 C           3.3988   -0.7684   -0.0919 C.2     1  UNL1       -0.0179
     15 C           4.4262   -0.6735   -0.9529 C.2     1  UNL1       -0.0277
     16 C           5.6818    0.0602   -0.5506 C.3     1  UNL1        0.0511
     17 C           5.9633   -0.1531    0.9162 C.2     1  UNL1       -0.0257
     18 C           4.9439   -0.2544    1.7840 C.2     1  UNL1       -0.0259
     19 C           3.5223   -0.1550    1.2877 C.3     1  UNL1        0.0492
     20 N           1.9067   -2.6124    0.4202 N.3     1  UNL1       -0.1185
     21 C          -3.9331    1.5263    0.7779 C.2     1  UNL1        0.3833
     22 O          -4.4141    1.4827    1.9400 O.co2   1  UNL1       -0.2438
     23 OXT        -4.4863    2.3879   -0.1623 O.co2   1  UNL1       -0.2438
     24 C          -2.7247   -1.5868    1.5451 C.3     1  UNL1        0.0131
@<TRIPOS>BOND
     1     1     2    1
     2     2     3    1
     3     3     4    1
     4     4     5    1
     5     5     6    1
     6     5     7    1
     7     7     8    1
     8     8     9    2
     9     7    10    1
    10    10    11   am
    11    11    12    2
    12    11    13    1
    13    13    14    1
    14    14    15    2
    15    15    16    1
    16    16    17    1
    17    17    18    2
    18    18    19    1
    19    13    20    1
    20     3    21    1
    21    21    22   ar
    22    21    23   ar
    23     2    24    1
    24     6     2    1
    25     8     4   am
    26    19    14    1
@<TRIPOS>MOLECULE
Benzylpenicillin_Penicillins1_Active
 23 25 0 0 0
SMALL
GASTEIGER

@<TRIPOS>ATOM
      1 C          -3.4568    1.6027   -1.4306 C.3     1  UNL1        0.0131
      2 C          -3.3138    0.9639   -0.0648 C.3     1  UNL1        0.0681
      3 CA         -3.1044   -0.5584   -0.2400 C.3     1  UNL1        0.1888
      4 N          -2.0394   -0.9017    0.6635 N.am    1  UNL1       -0.2594
      5 C          -1.4131    0.0482    1.5274 C.3     1  UNL1        0.1529
      6 S          -1.8244    1.6653    0.7727 S.3     1  UNL1       -0.1184
      7 CA         -0.0862   -0.4919    1.3133 C.3     1  UNL1        0.1995
      8 C          -0.7270   -1.5546    0.4786 C.2     1  UNL1        0.2491
      9 O          -0.3105   -2.5475   -0.1731 O.2     1  UNL1       -0.2729
     10 N           0.7448    0.3535    0.4645 N.am    1  UNL1       -0.1949
     11 C           1.8816    1.0521    0.9722 C.2     1  UNL1        0.2463
     12 O           2.2097    0.9487    2.1842 O.2     1  UNL1       -0.2730
     13 C           2.7058    1.8863    0.0526 C.3     1  UNL1        0.1131
     14 C           3.6557    1.0321   -0.7159 C.ar    1  UNL1       -0.0130
     15 C           4.9245    0.7511   -0.1960 C.ar    1  UNL1       -0.0038
     16 C           5.8074   -0.0667   -0.9079 C.ar    1  UNL1       -0.0003
     17 C           5.4216   -0.6078   -2.1383 C.ar    1  UNL1       -0.0000
     18 C           4.1524   -0.3325   -2.6565 C.ar    1  UNL1       -0.0003
     19 C           3.2691    0.4853   -1.9451 C.ar    1  UNL1       -0.0038
     20 C          -4.3036   -1.4296   -0.0125 C.2     1  UNL1        0.3833
     21 O          -4.8637   -1.9851   -0.9923 O.co2   1  UNL1       -0.2438
     22 OXT        -4.7953   -1.6370    1.2711 O.co2   1  UNL1       -0.2438
     23 C          -4.5342    1.3237    0.7724 C.3     1  UNL1        0.0131
@<TRIPOS>BOND
     1     1     2    1
     2     2     3    1
     3     3     4    1
     4     4     5    1
     5     5     6    1
     6     5     7    1
     7     7     8    1
     8     8     9    2
     9     7    10    1
    10    10    11   am
    11    11    12    2
    12    11    13    1
    13    13    14    1
    14    14    15   ar
    15    15    16   ar
    16    16    17   ar
    17    17    18   ar
    18    18    19   ar
    19     3    20    1
    20    20    21   ar
    21    20    22   ar
    22     2    23    1
    23     6     2    1
    24     8     4   am
    25    19    14   ar
@<TRIPOS>MOLECULE
BenzathineBenzylPenicillin_Penicillins1_Active
 40 42 0 0 0
SMALL
GASTEIGER

@<TRIPOS>ATOM
      1 C           2.7775   -1.6227   -0.0899 C.3     1  UNL1        0.0188
      2 C           2.2406   -0.5584   -1.0484 C.3     1  UNL1        0.0722
      3 N           2.8582    0.7619   -0.8670 N.3     1  UNL1       -0.2696
      4 C           4.2914    0.6648   -1.1137 C.3     1  UNL1        0.0722
      5 C           4.7879    1.9373   -1.7726 C.3     1  UNL1        0.0188
      6 C           2.6563    1.2260    0.5028 C.3     1  UNL1        0.1202
      7 C           1.4800    2.1912    0.5656 C.3     1  UNL1        0.2260
      8 O           0.2572    1.5191    0.2827 O.3     1  UNL1       -0.4439
      9 C          -0.3185    0.5957    1.1623 C.2     1  UNL1        0.3412
     10 O           0.2038    0.3810    2.2912 O.2     1  UNL1       -0.2449
     11 C          -1.5378   -0.1261    0.7655 C.ar    1  UNL1        0.0757
     12 C          -2.1324   -1.0535    1.6339 C.ar    1  UNL1        0.0078
     13 C          -3.2888   -1.7391    1.2500 C.ar    1  UNL1        0.0183
     14 C          -3.8575   -1.5023   -0.0044 C.ar    1  UNL1        0.0891
     15 C          -3.2702   -0.5803   -0.8751 C.ar    1  UNL1        0.0183
     16 C          -2.1139    0.1053   -0.4913 C.ar    1  UNL1        0.0078
     17 N          -5.0338   -2.1997   -0.3949 N.pl3   1  UNL1       -0.1281
     18 C          -3.3842    1.1232   -2.0719 C.3     2  UNL2        0.0131
     19 C          -3.3213    0.8075   -0.5918 C.3     2  UNL2        0.0681
     20 CA         -3.0519   -0.7016   -0.4010 C.3     2  UNL2        0.1888
     21 N          -2.0857   -0.7827    0.6624 N.am    2  UNL2       -0.2594
     22 C          -1.5661    0.3698    1.3285 C.3     2  UNL2        0.1529
     23 S          -1.9226    1.7427    0.1690 S.3     2  UNL2       -0.1184
     24 CA         -0.2164   -0.1531    1.3803 C.3     2  UNL2        0.1995
     25 C          -0.7518   -1.4091    0.7699 C.2     2  UNL2        0.2491
     26 O          -0.2557   -2.5121    0.4218 O.2     2  UNL2       -0.2729
     27 N           0.6846    0.4969    0.4360 N.am    2  UNL2       -0.1949
     28 C           1.7523    1.3412    0.8665 C.2     2  UNL2        0.2463
     29 O           1.9553    1.5440    2.0933 O.2     2  UNL2       -0.2730
     30 C           2.6541    1.9629   -0.1440 C.3     2  UNL2        0.1131
     31 C           3.6913    0.9880   -0.5871 C.ar    2  UNL2       -0.0130
     32 C           4.9039    0.8908    0.1053 C.ar    2  UNL2       -0.0038
     33 C           5.8682   -0.0378   -0.2985 C.ar    2  UNL2       -0.0003
     34 C           5.6198   -0.8730   -1.3921 C.ar    2  UNL2       -0.0000
     35 C           4.4067   -0.7810   -2.0815 C.ar    2  UNL2       -0.0003
     36 C           3.4422    0.1475   -1.6783 C.ar    2  UNL2       -0.0038
     37 C          -4.2562   -1.5588   -0.1317 C.2     2  UNL2        0.3833
     38 O          -5.0743   -1.7931   -1.0588 O.co2   2  UNL2       -0.2438
     39 OXT        -4.4816   -2.0896    1.1331 O.co2   2  UNL2       -0.2438
     40 C          -4.6107    1.2774    0.0702 C.3     2  UNL2        0.0131
@<TRIPOS>BOND
     1     1     2    1
     2     2     3    1
     3     3     4    1
     4     4     5    1
     5     3     6    1
     6     6     7    1
     7     7     8    1
     8     8     9    1
     9     9    10    2
    10     9    11    1
    11    11    12   ar
    12    12    13   ar
    13    13    14   ar
    14    14    15   ar
    15    15    16   ar
    16    14    17    1
    17    18    19    1
    18    19    20    1
    19    20    21    1
    20    21    22    1
    21    22    23    1
    22    22    24    1
    23    24    25    1
    24    25    26    2
    25    24    27    1
    26    27    28   am
    27    28    29    2
    28    28    30    1
    29    30    31    1
    30    31    32   ar
    31    32    33   ar
    32    33    34   ar
    33    34    35   ar
    34    35    36   ar
    35    20    37    1
    36    37    38   ar
    37    37    39   ar
    38    19    40    1
    39    16    11   ar
    40    23    19    1
    41    25    21   am
    42    36    31   ar
@<TRIPOS>MOLECULE
ProcaineBenzylpenicillin_Penicillins1_Active
 40 42 0 0 0
SMALL
GASTEIGER

@<TRIPOS>ATOM
      1 C           2.7775   -1.6227   -0.0899 C.3     1  UNL1        0.0188
      2 C           2.2406   -0.5584   -1.0484 C.3     1  UNL1        0.0722
      3 N           2.8582    0.7619   -0.8670 N.3     1  UNL1       -0.2696
      4 C           4.2914    0.6648   -1.1137 C.3     1  UNL1        0.0722
      5 C           4.7879    1.9373   -1.7726 C.3     1  UNL1        0.0188
      6 C           2.6563    1.2260    0.5028 C.3     1  UNL1        0.1202
      7 C           1.4800    2.1912    0.5656 C.3     1  UNL1        0.2260
      8 O           0.2572    1.5191    0.2827 O.3     1  UNL1       -0.4439
      9 C          -0.3185    0.5957    1.1623 C.2     1  UNL1        0.3412
     10 O           0.2038    0.3810    2.2912 O.2     1  UNL1       -0.2449
     11 C          -1.5378   -0.1261    0.7655 C.ar    1  UNL1        0.0757
     12 C          -2.1324   -1.0535    1.6339 C.ar    1  UNL1        0.0078
     13 C          -3.2888   -1.7391    1.2500 C.ar    1  UNL1        0.0183
     14 C          -3.8575   -1.5023   -0.0044 C.ar    1  UNL1        0.0891
     15 C          -3.2702   -0.5803   -0.8751 C.ar    1  UNL1        0.0183
     16 C          -2.1139    0.1053   -0.4913 C.ar    1  UNL1        0.0078
     17 N          -5.0338   -2.1997   -0.3949 N.pl3   1  UNL1       -0.1281
     18 C          -3.3842    1.1232   -2.0719 C.3     2  UNL2        0.0131
     19 C          -3.3213    0.8075   -0.5918 C.3     2  UNL2        0.0681
     20 CA         -3.0519   -0.7016   -0.4010 C.3     2  UNL2        0.1888
     21 N          -2.0857   -0.7827    0.6624 N.am    2  UNL2       -0.2594
     22 C          -1.5661    0.3698    1.3285 C.3     2  UNL2        0.1529
     23 S          -1.9226    1.7427    0.1690 S.3     2  UNL2       -0.1184
     24 CA         -0.2164   -0.1531    1.3803 C.3     2  UNL2        0.1995
     25 C          -0.7518   -1.4091    0.7699 C.2     2  UNL2        0.2491
     26 O          -0.2557   -2.5121    0.4218 O.2     2  UNL2       -0.2729
     27 N           0.6846    0.4969    0.4360 N.am    2  UNL2       -0.1949
     28 C           1.7523    1.3412    0.8665 C.2     2  UNL2        0.2463
     29 O           1.9553    1.5440    2.0933 O.2     2  UNL2       -0.2730
     30 C           2.6541    1.9629   -0.1440 C.3     2  UNL2        0.1131
     31 C           3.6913    0.9880   -0.5871 C.ar    2  UNL2       -0.0130
     32 C           4.9039    0.8908    0.1053 C.ar    2  UNL2       -0.0038
     33 C           5.8682   -0.0378   -0.2985 C.ar    2  UNL2       -0.0003
     34 C           5.6198   -0.8730   -1.3921 C.ar    2  UNL2       -0.0000
     35 C           4.4067   -0.7810   -2.0815 C.ar    2  UNL2       -0.0003
     36 C           3.4422    0.1475   -1.6783 C.ar    2  UNL2       -0.0038
     37 C          -4.2562   -1.5588   -0.1317 C.2     2  UNL2        0.3833
     38 O          -5.0743   -1.7931   -1.0588 O.co2   2  UNL2       -0.2438
     39 OXT        -4.4816   -2.0896    1.1331 O.co2   2  UNL2       -0.2438
     40 C          -4.6107    1.2774    0.0702 C.3     2  UNL2        0.0131
@<TRIPOS>BOND
     1     1     2    1
     2     2     3    1
     3     3     4    1
     4     4     5    1
     5     3     6    1
     6     6     7    1
     7     7     8    1
     8     8     9    1
     9     9    10    2
    10     9    11    1
    11    11    12   ar
    12    12    13   ar
    13    13    14   ar
    14    14    15   ar
    15    15    16   ar
    16    14    17    1
    17    18    19    1
    18    19    20    1
    19    20    21    1
    20    21    22    1
    21    22    23    1
    22    22    24    1
    23    24    25    1
    24    25    26    2
    25    24    27    1
    26    27    28   am
    27    28    29    2
    28    28    30    1
    29    30    31    1
    30    31    32   ar
    31    32    33   ar
    32    33    34   ar
    33    34    35   ar
    34    35    36   ar
    35    20    37    1
    36    37    38   ar
    37    37    39   ar
    38    19    40    1
    39    16    11   ar
    40    23    19    1
    41    25    21   am
    42    36    31   ar
@<TRIPOS>MOLECULE
PhenoxymethylPenicillin_Penicillins1_Active
 24 26 0 0 0
SMALL
GASTEIGER

@<TRIPOS>ATOM
      1 C          -0.6944   -1.9398   -0.2293 C.3     1  UNL1        0.0131
      2 C          -2.0284   -1.4205    0.2691 C.3     1  UNL1        0.0681
      3 CA         -1.7926   -0.7342    1.6340 C.3     1  UNL1        0.1888
      4 N          -1.6674    0.6603    1.3061 N.am    1  UNL1       -0.2594
      5 C          -2.2710    1.2498    0.1513 C.3     1  UNL1        0.1529
      6 S          -2.6430   -0.1713   -0.9489 S.3     1  UNL1       -0.1184
      7 CA         -1.1158    2.0684   -0.1491 C.3     1  UNL1        0.1996
      8 C          -0.4999    1.5454    1.1107 C.2     1  UNL1        0.2491
      9 O           0.5928    1.7230    1.7103 O.2     1  UNL1       -0.2729
     10 N          -0.3630    1.5885   -1.3027 N.am    1  UNL1       -0.1920
     11 C           0.8435    2.2144   -1.7425 C.2     1  UNL1        0.2864
     12 O           1.2416    3.2838   -1.2088 O.2     1  UNL1       -0.2693
     13 C           1.6350    1.6082   -2.8527 C.3     1  UNL1        0.2911
     14 O           1.7362    0.1954   -2.6890 O.3     1  UNL1       -0.4656
     15 C           2.5110   -0.4139   -1.6947 C.ar    1  UNL1        0.1393
     16 C           3.2767    0.3401   -0.7896 C.ar    1  UNL1        0.0369
     17 C           4.0332   -0.2983    0.1970 C.ar    1  UNL1        0.0031
     18 C           4.0309   -1.6930    0.2849 C.ar    1  UNL1        0.0002
     19 C           3.2743   -2.4490   -0.6150 C.ar    1  UNL1        0.0031
     20 C           2.5173   -1.8101   -1.6019 C.ar    1  UNL1        0.0369
     21 C          -2.9062   -0.9115    2.6268 C.2     1  UNL1        0.3833
     22 O          -4.0617   -0.4711    2.3842 O.co2   1  UNL1       -0.2438
     23 OXT        -2.6567   -1.5663    3.8250 O.co2   1  UNL1       -0.2438
     24 C          -2.9924   -2.5982    0.3247 C.3     1  UNL1        0.0131
@<TRIPOS>BOND
     1     1     2    1
     2     2     3    1
     3     3     4    1
     4     4     5    1
     5     5     6    1
     6     5     7    1
     7     7     8    1
     8     8     9    2
     9     7    10    1
    10    10    11   am
    11    11    12    2
    12    11    13    1
    13    13    14    1
    14    14    15    1
    15    15    16   ar
    16    16    17   ar
    17    17    18   ar
    18    18    19   ar
    19    19    20   ar
    20     3    21    1
    21    21    22   ar
    22    21    23   ar
    23     2    24    1
    24     6     2    1
    25     8     4   am
    26    20    15   ar
@<TRIPOS>MOLECULE
Propicillin_Penicillins1_Active
 26 28 0 0 0
SMALL
GASTEIGER

@<TRIPOS>ATOM
      1 C           3.4882   -3.0124   -2.7006 C.3     1  UNL1        0.0044
      2 C           2.8188   -3.2621   -1.3584 C.3     1  UNL1        0.0532
      3 C           2.1287   -2.0063   -0.8255 C.3     1  UNL1        0.2427
      4 C           0.9109   -1.5938   -1.6025 C.2     1  UNL1        0.2820
      5 O           0.4239   -2.3482   -2.4888 O.2     1  UNL1       -0.2694
      6 N           0.2800   -0.3489   -1.2951 N.am    1  UNL1       -0.1921
      7 CA         -0.9540    0.0836   -1.9411 C.3     1  UNL1        0.1996
      8 C          -2.1468   -0.3031   -1.2161 C.3     1  UNL1        0.1529
      9 N          -2.4126    1.0276   -0.7624 N.am    1  UNL1       -0.2594
     10 C          -1.2531    1.4945   -1.5523 C.2     1  UNL1        0.2491
     11 O          -0.7028    2.6087   -1.7516 O.2     1  UNL1       -0.2729
     12 CA         -2.8589    1.3248    0.5719 C.3     1  UNL1        0.1888
     13 C          -2.3045    0.1606    1.4223 C.3     1  UNL1        0.0681
     14 S          -1.9530   -1.2843    0.3242 S.3     1  UNL1       -0.1184
     15 C          -0.9938    0.6107    2.0362 C.3     1  UNL1        0.0131
     16 C          -3.2243   -0.2707    2.5564 C.3     1  UNL1        0.0131
     17 C          -4.3545    1.4468    0.5741 C.2     1  UNL1        0.3833
     18 O          -4.8933    2.4908    1.0241 O.co2   1  UNL1       -0.2438
     19 OXT        -5.1492    0.4168    0.0841 O.co2   1  UNL1       -0.2438
     20 O           3.0512   -0.9261   -0.7182 O.3     1  UNL1       -0.4699
     21 C           3.1915   -0.1672    0.4473 C.ar    1  UNL1        0.1391
     22 C           2.4348   -0.4405    1.5990 C.ar    1  UNL1        0.0369
     23 C           2.5938    0.3395    2.7479 C.ar    1  UNL1        0.0031
     24 C           3.5087    1.3959    2.7534 C.ar    1  UNL1        0.0002
     25 C           4.2646    1.6717    1.6105 C.ar    1  UNL1        0.0031
     26 C           4.1058    0.8915    0.4612 C.ar    1  UNL1        0.0369
@<TRIPOS>BOND
     1     1     2    1
     2     2     3    1
     3     3     4    1
     4     4     5    2
     5     4     6   am
     6     7     6    1
     7     7     8    1
     8     8     9    1
     9     9    10   am
    10    10    11    2
    11     9    12    1
    12    12    13    1
    13    13    14    1
    14    13    15    1
    15    13    16    1
    16    12    17    1
    17    17    18   ar
    18    17    19   ar
    19     3    20    1
    20    20    21    1
    21    21    22   ar
    22    22    23   ar
    23    23    24   ar
    24    24    25   ar
    25    25    26   ar
    26    10     7    1
    27     8    14    1
    28    26    21   ar
@<TRIPOS>MOLECULE
Pheneticillin_Penicillins1_Active
 25 27 0 0 0
SMALL
GASTEIGER

@<TRIPOS>ATOM
      1 C           1.5549   -3.2439    0.8306 C.3     1  UNL1        0.0575
      2 C           1.9588   -1.7955    0.6338 C.3     1  UNL1        0.2428
      3 C           1.1877   -1.1999   -0.4990 C.2     1  UNL1        0.2820
      4 O           1.3209   -1.6549   -1.6679 O.2     1  UNL1       -0.2694
      5 N           0.3067   -0.1055   -0.2437 N.am    1  UNL1       -0.1921
      6 CA         -0.4913    0.5162   -1.2950 C.3     1  UNL1        0.1996
      7 C          -1.7947   -0.0922   -1.4656 C.3     1  UNL1        0.1529
      8 N          -2.4869    1.0064   -0.8647 N.am    1  UNL1       -0.2594
      9 C          -1.1941    1.7142   -0.7451 C.2     1  UNL1        0.2491
     10 O          -0.8297    2.8319   -0.2959 O.2     1  UNL1       -0.2729
     11 CA         -3.5853    0.8342    0.0475 C.3     1  UNL1        0.1888
     12 C          -3.3316   -0.5497    0.6851 C.3     1  UNL1        0.0681
     13 S          -2.2291   -1.5384   -0.4208 S.3     1  UNL1       -0.1184
     14 C          -4.6009   -1.3377    0.9795 C.3     1  UNL1        0.0131
     15 C          -2.6049   -0.3364    1.9983 C.3     1  UNL1        0.0131
     16 C          -4.8756    0.9491   -0.7099 C.2     1  UNL1        0.3833
     17 O          -5.7443    1.7793   -0.3374 O.co2   1  UNL1       -0.2438
     18 OXT        -5.1193    0.1463   -1.8183 O.co2   1  UNL1       -0.2438
     19 O           3.3582   -1.7215    0.3777 O.3     1  UNL1       -0.4699
     20 C           4.0977   -0.5385    0.4886 C.ar    1  UNL1        0.1391
     21 C           5.4572   -0.5565    0.1586 C.ar    1  UNL1        0.0369
     22 C           6.2240    0.6083    0.2599 C.ar    1  UNL1        0.0031
     23 C           5.6339    1.7989    0.6934 C.ar    1  UNL1        0.0002
     24 C           4.2770    1.8252    1.0268 C.ar    1  UNL1        0.0031
     25 C           3.5105    0.6607    0.9258 C.ar    1  UNL1        0.0369
@<TRIPOS>BOND
     1     1     2    1
     2     2     3    1
     3     3     4    2
     4     3     5   am
     5     6     5    1
     6     6     7    1
     7     7     8    1
     8     8     9   am
     9     9    10    2
    10     8    11    1
    11    11    12    1
    12    12    13    1
    13    12    14    1
    14    12    15    1
    15    11    16    1
    16    16    17   ar
    17    16    18   ar
    18     2    19    1
    19    19    20    1
    20    20    21   ar
    21    21    22   ar
    22    22    23   ar
    23    23    24   ar
    24    24    25   ar
    25     9     6    1
    26     7    13    1
    27    25    20   ar
@<TRIPOS>MOLECULE
Azidocillin_Penicillins1_Active
 26 28 0 0 0
SMALL
GASTEIGER

@<TRIPOS>ATOM
      1 C           5.0045   -0.8289    1.0633 C.3     1  UNL1        0.0131
      2 C           3.8170   -0.7342    0.1135 C.3     1  UNL1        0.0681
      3 CA          3.6877    0.6471   -0.5652 C.3     1  UNL1        0.1888
      4 N           2.6645    1.3390    0.1749 N.am    1  UNL1       -0.2594
      5 C           1.9887    0.7582    1.2930 C.3     1  UNL1        0.1529
      6 S           2.2829   -1.0392    1.0952 S.3     1  UNL1       -0.1184
      7 CA          0.6987    1.2884    0.9066 C.3     1  UNL1        0.1996
      8 C           1.3955    1.9854   -0.2194 C.2     1  UNL1        0.2491
      9 O           1.0368    2.7448   -1.1567 O.2     1  UNL1       -0.2729
     10 N          -0.2027    0.2694    0.3787 N.am    1  UNL1       -0.1930
     11 C          -1.5231    0.5734   -0.0713 C.2     1  UNL1        0.2758
     12 O          -1.9705    1.7502    0.0083 O.2     1  UNL1       -0.2706
     13 C          -2.3832   -0.5281   -0.6026 C.3     1  UNL1        0.2864
     14 C          -3.3750   -0.9851    0.4257 C.ar    1  UNL1        0.0158
     15 C          -4.4576   -0.1751    0.8023 C.ar    1  UNL1       -0.0017
     16 C          -5.3623   -0.6183    1.7713 C.ar    1  UNL1       -0.0002
     17 C          -5.1882   -1.8697    2.3696 C.ar    1  UNL1       -0.0000
     18 C          -4.1088   -2.6775    1.9999 C.ar    1  UNL1       -0.0002
     19 C          -3.2034   -2.2351    1.0307 C.ar    1  UNL1       -0.0017
     20 N          -3.0447   -0.1151   -1.8334 N.2     1  UNL1        0.1011
     21 N          -3.5950   -0.9450   -2.5571 N.2     1  UNL1       -0.0132
     22 N          -4.1452   -1.7742   -3.2801 N.2     1  UNL1       -0.3281
     23 C           4.9550    1.4502   -0.6739 C.2     1  UNL1        0.3833
     24 O           5.1166    2.4983    0.0062 O.co2   1  UNL1       -0.2438
     25 OXT         5.9627    1.0270   -1.5304 O.co2   1  UNL1       -0.2438
     26 C           3.9492   -1.8057   -0.9490 C.3     1  UNL1        0.0131
@<TRIPOS>UNITY_ATOM_ATTR
21 1
charge 1
22 1
charge -1
@<TRIPOS>BOND
     1     1     2    1
     2     2     3    1
     3     3     4    1
     4     4     5    1
     5     5     6    1
     6     5     7    1
     7     7     8    1
     8     8     9    2
     9     7    10    1
    10    10    11   am
    11    11    12    2
    12    11    13    1
    13    13    14    1
    14    14    15   ar
    15    15    16   ar
    16    16    17   ar
    17    17    18   ar
    18    18    19   ar
    19    13    20    1
    20    20    21    2
    21    21    22    2
    22     3    23    1
    23    23    24   ar
    24    23    25   ar
    25     2    26    1
    26     6     2    1
    27     8     4   am
    28    19    14   ar
@<TRIPOS>MOLECULE
Clometocillin_Penicillins1_Active
 27 29 0 0 0
SMALL
GASTEIGER

@<TRIPOS>ATOM
      1 C           1.6146    1.3354    1.4549 C.3     1  UNL1        0.0131
      2 C           2.1979    1.3182    0.0562 C.3     1  UNL1        0.0681
      3 CA          3.4184    0.3698    0.0619 C.3     1  UNL1        0.1888
      4 N           2.8913   -0.8774   -0.4216 N.am    1  UNL1       -0.2594
      5 C           1.7539   -0.9643   -1.2823 C.3     1  UNL1        0.1529
      6 S           0.9090    0.6541   -1.0927 S.3     1  UNL1       -0.1184
      7 CA          1.2044   -2.1152   -0.5956 C.3     1  UNL1        0.1996
      8 C           2.4339   -2.1087    0.2558 C.2     1  UNL1        0.2491
      9 O           2.8626   -2.8132    1.2065 O.2     1  UNL1       -0.2729
     10 N           0.0450   -1.7891    0.2263 N.am    1  UNL1       -0.1928
     11 C          -1.2841   -2.1370   -0.1678 C.2     1  UNL1        0.2733
     12 O          -1.4879   -2.7630   -1.2418 O.2     1  UNL1       -0.2703
     13 C          -2.4491   -1.7397    0.6811 C.3     1  UNL1        0.2149
     14 C          -2.6494   -0.2550    0.6698 C.ar    1  UNL1        0.0143
     15 C          -3.7078    0.2868   -0.0654 C.ar    1  UNL1        0.0108
     16 C          -3.9062    1.6705   -0.1075 C.ar    1  UNL1        0.0680
     17 C          -3.0346    2.5223    0.5932 C.ar    1  UNL1        0.0682
     18 C          -1.9775    1.9800    1.3297 C.ar    1  UNL1        0.0120
     19 C          -1.7840    0.5974    1.3688 C.ar    1  UNL1       -0.0005
     20 CL         -3.2371    4.2661    0.5692 Cl      1  UNL1       -0.0814
     21 CL         -5.2489    2.3006   -1.0469 Cl      1  UNL1       -0.0814
     22 O          -2.2919   -2.2119    1.9878 O.3     1  UNL1       -0.3400
     23 C          -3.3770   -3.0655    2.1937 C.3     1  UNL1        0.1751
     24 C           4.5460    0.8024   -0.8291 C.2     1  UNL1        0.3833
     25 O           5.6702    1.0628   -0.3282 O.co2   1  UNL1       -0.2438
     26 OXT         4.3591    0.9186   -2.2017 O.co2   1  UNL1       -0.2438
     27 C           2.5291    2.7550   -0.3243 C.3     1  UNL1        0.0131
@<TRIPOS>BOND
     1     1     2    1
     2     2     3    1
     3     3     4    1
     4     4     5    1
     5     5     6    1
     6     5     7    1
     7     7     8    1
     8     8     9    2
     9     7    10    1
    10    10    11   am
    11    11    12    2
    12    11    13    1
    13    13    14    1
    14    14    15   ar
    15    15    16   ar
    16    16    17   ar
    17    17    18   ar
    18    18    19   ar
    19    17    20    1
    20    16    21    1
    21    13    22    1
    22    22    23    1
    23     3    24    1
    24    24    25   ar
    25    24    26   ar
    26     2    27    1
    27     6     2    1
    28     8     4   am
    29    19    14   ar
@<TRIPOS>MOLECULE
Penamecillin_Penicillins1_Active
 28 30 0 0 0
SMALL
GASTEIGER

@<TRIPOS>ATOM
      1 C           3.8005   -2.2974    5.1770 C.3     1  UNL1        0.1213
      2 C           4.1086   -1.7698    3.8225 C.2     1  UNL1        0.3202
      3 O           4.0673   -2.5442    2.8290 O.2     1  UNL1       -0.2500
      4 O           4.4474   -0.4235    3.6699 O.3     1  UNL1       -0.4081
      5 C           4.7363    0.1450    2.3993 C.3     1  UNL1        0.4332
      6 O           3.5558    0.1823    1.6104 O.3     1  UNL1       -0.4069
      7 C           3.5592    0.6597    0.2982 C.2     1  UNL1        0.3387
      8 O           4.6158    1.1085   -0.2212 O.2     1  UNL1       -0.2481
      9 C           2.2996    0.6221   -0.5156 C.3     1  UNL1        0.1845
     10 C           1.7744   -0.8034   -0.8010 C.3     1  UNL1        0.0679
     11 S           0.4716   -1.2339    0.4389 S.3     1  UNL1       -0.1184
     12 C           0.3183    0.4945    1.0387 C.3     1  UNL1        0.1529
     13 N           1.2383    1.2376    0.2350 N.am    1  UNL1       -0.2596
     14 C           0.1288    2.1352   -0.1485 C.2     1  UNL1        0.2491
     15 O           0.0208    3.1555   -0.8777 O.2     1  UNL1       -0.2729
     16 C          -0.8268    1.2715    0.6118 C.3     1  UNL1        0.1995
     17 N          -1.6806    0.5576   -0.3301 N.am    1  UNL1       -0.1949
     18 C          -2.9873    0.1043    0.0238 C.2     1  UNL1        0.2463
     19 O          -3.4463    0.3086    1.1792 O.2     1  UNL1       -0.2730
     20 C          -3.8274   -0.5908   -0.9924 C.3     1  UNL1        0.1131
     21 C          -4.4692    0.3998   -1.9033 C.ar    1  UNL1       -0.0130
     22 C          -3.8163    0.8002   -3.0751 C.ar    1  UNL1       -0.0038
     23 C          -4.4086    1.7455   -3.9183 C.ar    1  UNL1       -0.0003
     24 C          -5.6521    2.2945   -3.5893 C.ar    1  UNL1       -0.0000
     25 C          -6.3032    1.8995   -2.4164 C.ar    1  UNL1       -0.0003
     26 C          -5.7114    0.9543   -1.5727 C.ar    1  UNL1       -0.0038
     27 C           2.8568   -1.8751   -0.7989 C.3     1  UNL1        0.0131
     28 C           1.1296   -0.8012   -2.1734 C.3     1  UNL1        0.0131
@<TRIPOS>BOND
     1     1     2    1
     2     2     3    2
     3     2     4    1
     4     4     5    1
     5     5     6    1
     6     6     7    1
     7     7     8    2
     8     9     7    1
     9     9    10    1
    10    10    11    1
    11    12    11    1
    12    12    13    1
    13    13    14   am
    14    14    15    2
    15    14    16    1
    16    16    17    1
    17    17    18   am
    18    18    19    2
    19    18    20    1
    20    20    21    1
    21    21    22   ar
    22    22    23   ar
    23    23    24   ar
    24    24    25   ar
    25    25    26   ar
    26    10    27    1
    27    10    28    1
    28    13     9    1
    29    16    12    1
    30    26    21   ar
@<TRIPOS>MOLECULE
Cloxacillin_Penicillins2_Active
 29 32 0 0 0
SMALL
GASTEIGER

@<TRIPOS>ATOM
      1 C          -0.9123    3.3435    0.9724 C.3     1  UNL1        0.0755
      2 C          -1.9508    2.4264    0.4255 C.ar    1  UNL1        0.1592
      3 C          -1.9612    1.0443    0.4774 C.ar    1  UNL1        0.1087
      4 C          -3.1512    0.7033   -0.1557 C.ar    1  UNL1        0.1278
      5 N          -3.7793    1.8306   -0.5482 N.ar    1  UNL1       -0.0772
      6 O          -3.0379    2.8357   -0.1827 O.2     1  UNL1       -0.3576
      7 C          -3.6481   -0.6506   -0.4765 C.ar    1  UNL1        0.0316
      8 C          -2.7582   -1.5956   -1.0084 C.ar    1  UNL1        0.0024
      9 C          -3.2007   -2.8720   -1.3619 C.ar    1  UNL1        0.0001
     10 C          -4.5426   -3.2156   -1.1938 C.ar    1  UNL1        0.0009
     11 C          -5.4414   -2.2826   -0.6730 C.ar    1  UNL1        0.0114
     12 C          -5.0070   -1.0011   -0.3182 C.ar    1  UNL1        0.0592
     13 CL         -6.1882    0.1075    0.3650 Cl      1  UNL1       -0.0822
     14 C          -0.9718    0.1619    1.1272 C.2     1  UNL1        0.2696
     15 O          -1.2780   -1.0241    1.4240 O.2     1  UNL1       -0.2682
     16 N           0.3336    0.6572    1.4337 N.am    1  UNL1       -0.1913
     17 CA          1.3680   -0.1797    2.0322 C.3     1  UNL1        0.1998
     18 C           2.1594   -0.9049    1.0581 C.3     1  UNL1        0.1529
     19 N           3.3121   -0.0823    1.2509 N.am    1  UNL1       -0.2594
     20 C           2.5822    0.6462    2.3094 C.2     1  UNL1        0.2491
     21 O           2.8494    1.6096    3.0739 O.2     1  UNL1       -0.2729
     22 CA          4.1656    0.3402    0.1728 C.3     1  UNL1        0.1888
     23 C           3.5093   -0.2208   -1.1109 C.3     1  UNL1        0.0681
     24 S           1.7667   -0.6910   -0.7182 S.3     1  UNL1       -0.1184
     25 C           3.4991    0.8601   -2.1717 C.3     1  UNL1        0.0131
     26 C           4.2098   -1.4502   -1.6744 C.3     1  UNL1        0.0131
     27 C           5.5918   -0.0549    0.4249 C.2     1  UNL1        0.3833
     28 O           5.8815   -1.2258    0.7886 O.co2   1  UNL1       -0.2438
     29 OXT         6.6005    0.8847    0.2635 O.co2   1  UNL1       -0.2438
@<TRIPOS>BOND
     1     1     2    1
     2     2     3   ar
     3     3     4   ar
     4     4     5   ar
     5     5     6   ar
     6     4     7    1
     7     7     8   ar
     8     8     9   ar
     9     9    10   ar
    10    10    11   ar
    11    11    12   ar
    12    12    13    1
    13     3    14    1
    14    14    15    2
    15    14    16   am
    16    17    16    1
    17    17    18    1
    18    18    19    1
    19    19    20   am
    20    20    21    2
    21    19    22    1
    22    22    23    1
    23    23    24    1
    24    23    25    1
    25    23    26    1
    26    22    27    1
    27    27    28   ar
    28    27    29   ar
    29     6     2   ar
    30    12     7   ar
    31    20    17    1
    32    18    24    1
@<TRIPOS>MOLECULE
Oxacillin_Penicillins2_Active
 28 31 0 0 0
SMALL
GASTEIGER

@<TRIPOS>ATOM
      1 C           0.0033    2.8468   -0.1709 C.3     1  UNL1        0.0755
      2 C          -1.3663    2.2996   -0.3762 C.ar    1  UNL1        0.1592
      3 C          -1.8184    1.0299   -0.0633 C.ar    1  UNL1        0.1086
      4 C          -3.1496    1.0478   -0.4766 C.ar    1  UNL1        0.1270
      5 N          -3.4272    2.2594   -1.0019 N.ar    1  UNL1       -0.0772
      6 O          -2.3449    2.9768   -0.9247 O.2     1  UNL1       -0.3576
      7 C          -4.1748   -0.0059   -0.3357 C.ar    1  UNL1        0.0211
      8 C          -4.1234   -0.9392    0.7097 C.ar    1  UNL1        0.0016
      9 C          -5.1275   -1.9012    0.8518 C.ar    1  UNL1        0.0000
     10 C          -6.1993   -1.9293   -0.0439 C.ar    1  UNL1        0.0000
     11 C          -6.2692   -0.9922   -1.0779 C.ar    1  UNL1        0.0000
     12 C          -5.2639   -0.0309   -1.2187 C.ar    1  UNL1        0.0016
     13 C          -1.0155   -0.0890    0.4711 C.2     1  UNL1        0.2696
     14 O          -1.3659   -1.2806    0.2589 O.2     1  UNL1       -0.2682
     15 N           0.1875    0.1786    1.1964 N.am    1  UNL1       -0.1913
     16 CA          1.0258   -0.8870    1.7357 C.3     1  UNL1        0.1998
     17 C           2.0295   -1.3627    0.8060 C.3     1  UNL1        0.1529
     18 N           3.1101   -0.7590    1.5225 N.am    1  UNL1       -0.2594
     19 C           2.1392   -0.2977    2.5381 C.2     1  UNL1        0.2491
     20 O           2.2135    0.3736    3.6000 O.2     1  UNL1       -0.2729
     21 CA          4.2205   -0.1168    0.8734 C.3     1  UNL1        0.1888
     22 C           3.6513    0.3441   -0.4875 C.3     1  UNL1        0.0681
     23 S           2.1073   -0.6025   -0.8627 S.3     1  UNL1       -0.1184
     24 C           4.6270    0.2048   -1.6484 C.3     1  UNL1        0.0131
     25 C           3.2845    1.8093   -0.3677 C.3     1  UNL1        0.0131
     26 C           5.3647   -1.0837    0.7851 C.2     1  UNL1        0.3833
     27 O           6.4888   -0.7621    1.2494 O.co2   1  UNL1       -0.2438
     28 OXT         5.1930   -2.3307    0.1954 O.co2   1  UNL1       -0.2438
@<TRIPOS>BOND
     1     1     2    1
     2     2     3   ar
     3     3     4   ar
     4     4     5   ar
     5     5     6   ar
     6     4     7    1
     7     7     8   ar
     8     8     9   ar
     9     9    10   ar
    10    10    11   ar
    11    11    12   ar
    12     3    13    1
    13    13    14    2
    14    13    15   am
    15    16    15    1
    16    16    17    1
    17    17    18    1
    18    18    19   am
    19    19    20    2
    20    18    21    1
    21    21    22    1
    22    22    23    1
    23    22    24    1
    24    22    25    1
    25    21    26    1
    26    26    27   ar
    27    26    28   ar
    28     6     2   ar
    29    12     7   ar
    30    19    16    1
    31    17    23    1
@<TRIPOS>MOLECULE
Nafcillin_Penicillins2_Active
 29 32 0 0 0
SMALL
GASTEIGER

@<TRIPOS>ATOM
      1 C          -1.1184    4.4180   -1.0008 C.3     1  UNL1        0.0512
      2 C          -2.0955    3.3071   -1.3217 C.3     1  UNL1        0.2055
      3 O          -1.8222    2.1853   -0.4933 O.3     1  UNL1       -0.4753
      4 C          -2.5505    0.9903   -0.5575 C.ar    1  UNL1        0.1429
      5 C          -2.2132   -0.0907    0.2927 C.ar    1  UNL1        0.0889
      6 C          -2.9772   -1.2861    0.2204 C.ar    1  UNL1        0.0074
      7 C          -2.6758   -2.4060    1.0151 C.ar    1  UNL1        0.0002
      8 C          -3.4330   -3.5761    0.9213 C.ar    1  UNL1        0.0000
      9 C          -4.5019   -3.6477    0.0265 C.ar    1  UNL1        0.0000
     10 C          -4.8128   -2.5510   -0.7794 C.ar    1  UNL1        0.0000
     11 C          -4.0586   -1.3774   -0.6916 C.ar    1  UNL1        0.0003
     12 C          -4.3727   -0.3024   -1.5170 C.ar    1  UNL1        0.0031
     13 C          -3.6256    0.8692   -1.4508 C.ar    1  UNL1        0.0370
     14 C          -1.0682    0.0415    1.2341 C.2     1  UNL1        0.2682
     15 O          -1.0966   -0.5317    2.3573 O.2     1  UNL1       -0.2682
     16 N           0.0765    0.8161    0.8661 N.am    1  UNL1       -0.1913
     17 CA          1.2587    0.9251    1.7133 C.3     1  UNL1        0.1998
     18 C           2.2510   -0.0957    1.4465 C.3     1  UNL1        0.1529
     19 N           3.1376    0.8108    0.7834 N.am    1  UNL1       -0.2594
     20 C           2.2071    1.9114    1.1139 C.2     1  UNL1        0.2491
     21 O           2.1868    3.1524    0.9054 O.2     1  UNL1       -0.2729
     22 CA          3.8444    0.4712   -0.4223 C.3     1  UNL1        0.1888
     23 C           2.9515   -0.5958   -1.0931 C.3     1  UNL1        0.0681
     24 S           1.8707   -1.3767    0.1863 S.3     1  UNL1       -0.1184
     25 C           3.7284   -1.6745   -1.8355 C.3     1  UNL1        0.0131
     26 C           2.0556    0.1031   -2.0970 C.3     1  UNL1        0.0131
     27 C           5.2240   -0.0002   -0.0668 C.2     1  UNL1        0.3833
     28 O           6.2250    0.5534   -0.5901 O.co2   1  UNL1       -0.2438
     29 OXT         5.4051   -1.0430    0.8344 O.co2   1  UNL1       -0.2438
@<TRIPOS>BOND
     1     1     2    1
     2     2     3    1
     3     3     4    1
     4     4     5   ar
     5     5     6   ar
     6     6     7   ar
     7     7     8   ar
     8     8     9   ar
     9     9    10   ar
    10    10    11   ar
    11    11    12   ar
    12    12    13   ar
    13     5    14    1
    14    14    15    2
    15    14    16   am
    16    17    16    1
    17    17    18    1
    18    18    19    1
    19    19    20   am
    20    20    21    2
    21    19    22    1
    22    22    23    1
    23    23    24    1
    24    23    25    1
    25    23    26    1
    26    22    27    1
    27    27    28   ar
    28    27    29   ar
    29    13     4   ar
    30    11     6   ar
    31    20    17    1
    32    18    24    1
@<TRIPOS>MOLECULE
Methicillin_Penicillins2_Active
 26 28 0 0 0
SMALL
GASTEIGER

@<TRIPOS>ATOM
      1 C           2.1581   -2.2189   -0.0812 C.3     1  UNL1        0.0131
      2 C           2.8005   -1.2565    0.8970 C.3     1  UNL1        0.0681
      3 CA          3.6354   -0.2426    0.0821 C.3     1  UNL1        0.1888
      4 N           2.7725    0.9007   -0.0384 N.am    1  UNL1       -0.2594
      5 C           1.7559    1.2176    0.9149 C.3     1  UNL1        0.1529
      6 S           1.4496   -0.3636    1.7939 S.3     1  UNL1       -0.1184
      7 CA          0.8094    1.6399   -0.0959 C.3     1  UNL1        0.1998
      8 C           1.8759    1.3808   -1.1107 C.2     1  UNL1        0.2491
      9 O           1.9532    1.4670   -2.3639 O.2     1  UNL1       -0.2729
     10 N          -0.2916    0.7017   -0.2844 N.am    1  UNL1       -0.1912
     11 C          -1.6430    1.0627    0.0149 C.2     1  UNL1        0.2712
     12 O          -1.8916    2.2098    0.4773 O.2     1  UNL1       -0.2681
     13 C          -2.7519    0.1068   -0.2332 C.ar    1  UNL1        0.1227
     14 C          -4.0311    0.5838   -0.6093 C.ar    1  UNL1        0.1460
     15 C          -5.0729   -0.3273   -0.8412 C.ar    1  UNL1        0.0373
     16 C          -4.8637   -1.6964   -0.7066 C.ar    1  UNL1        0.0062
     17 C          -3.6099   -2.1722   -0.3349 C.ar    1  UNL1        0.0373
     18 C          -2.5480   -1.2868   -0.0925 C.ar    1  UNL1        0.1460
     19 O          -1.2998   -1.7789    0.3080 O.3     1  UNL1       -0.4712
     20 C          -1.0431   -3.1630    0.5063 C.3     1  UNL1        0.2525
     21 O          -4.2488    1.9590   -0.7660 O.3     1  UNL1       -0.4712
     22 C          -5.5048    2.5057   -1.1459 C.3     1  UNL1        0.2525
     23 C           4.9243    0.1762    0.7309 C.2     1  UNL1        0.3833
     24 O           4.9223    0.7796    1.8371 O.co2   1  UNL1       -0.2438
     25 OXT         6.1296   -0.1066    0.1036 O.co2   1  UNL1       -0.2438
     26 C           3.6135   -2.0785    1.8881 C.3     1  UNL1        0.0131
@<TRIPOS>BOND
     1     1     2    1
     2     2     3    1
     3     3     4    1
     4     4     5    1
     5     5     6    1
     6     5     7    1
     7     7     8    1
     8     8     9    2
     9     7    10    1
    10    10    11   am
    11    11    12    2
    12    11    13    1
    13    13    14   ar
    14    14    15   ar
    15    15    16   ar
    16    16    17   ar
    17    17    18   ar
    18    18    19    1
    19    19    20    1
    20    14    21    1
    21    21    22    1
    22     3    23    1
    23    23    24   ar
    24    23    25   ar
    25     2    26    1
    26     6     2    1
    27     8     4   am
    28    18    13   ar
@<TRIPOS>MOLECULE
Ticarcillin_Penicillins4_Active
 25 27 0 0 0
SMALL
GASTEIGER

@<TRIPOS>ATOM
      1 C          -2.3599    3.3847    2.3399 C.3     1  UNL1        0.0131
      2 C          -1.9106    2.3358    1.3315 C.3     1  UNL1        0.0681
      3 CA         -3.0005    1.9366    0.3110 C.3     1  UNL1        0.1888
      4 N          -2.7692    0.5351    0.0881 N.am    1  UNL1       -0.2594
      5 C          -2.1595   -0.3205    1.0586 C.3     1  UNL1        0.1529
      6 S          -1.3246    0.8259    2.2240 S.3     1  UNL1       -0.1184
      7 CA         -1.3515   -1.0122    0.0771 C.3     1  UNL1        0.1995
      8 C          -2.0551   -0.2084   -0.9709 C.2     1  UNL1        0.2491
      9 O          -2.0019   -0.1387   -2.2264 O.2     1  UNL1       -0.2729
     10 N           0.0564   -0.6321    0.1302 N.am    1  UNL1       -0.1944
     11 C           1.0295   -1.1636   -0.7689 C.2     1  UNL1        0.2565
     12 O           0.6988   -2.0190   -1.6353 O.2     1  UNL1       -0.2724
     13 C           2.4467   -0.6915   -0.6689 C.3     1  UNL1        0.2037
     14 C           3.3901   -1.7813   -0.2568 C.ar    1  UNL1        0.0040
     15 C           3.6556   -2.9058   -1.0343 C.ar    1  UNL1        0.0322
     16 S           4.7535   -3.8170   -0.1519 S.2     1  UNL1       -0.0862
     17 C           4.9020   -2.8236    1.1940 C.ar    1  UNL1        0.0352
     18 C           4.0719   -1.7334    0.9672 C.ar    1  UNL1        0.0042
     19 C           2.8982    0.0293   -1.9019 C.2     1  UNL1        0.3772
     20 O           2.9470   -0.5620   -3.0133 O.co2   1  UNL1       -0.2448
     21 O           3.2695    1.3640   -1.8162 O.co2   1  UNL1       -0.2448
     22 C          -4.4071    2.1287    0.7981 C.2     1  UNL1        0.3833
     23 O          -5.1711    2.9255    0.1950 O.co2   1  UNL1       -0.2438
     24 OXT        -4.8723    1.4354    1.9097 O.co2   1  UNL1       -0.2438
     25 C          -0.7357    2.9080    0.5630 C.3     1  UNL1        0.0131
@<TRIPOS>BOND
     1     1     2    1
     2     2     3    1
     3     3     4    1
     4     4     5    1
     5     5     6    1
     6     5     7    1
     7     7     8    1
     8     8     9    2
     9     7    10    1
    10    10    11   am
    11    11    12    2
    12    13    11    1
    13    13    14    1
    14    14    15   ar
    15    15    16   ar
    16    16    17   ar
    17    17    18   ar
    18    13    19    1
    19    19    20   ar
    20    19    21   ar
    21     3    22    1
    22    22    23   ar
    23    22    24   ar
    24     2    25    1
    25     6     2    1
    26     8     4   am
    27    18    14   ar
@<TRIPOS>MOLECULE
Carbenicillin_Penicillins4_Active
 26 28 0 0 0
SMALL
GASTEIGER

@<TRIPOS>ATOM
      1 C           4.0950   -0.9856   -1.8586 C.3     1  UNL1        0.0131
      2 C           2.6548   -0.4875   -1.8469 C.3     1  UNL1        0.0681
      3 CA          2.5432    1.0522   -1.8055 C.3     1  UNL1        0.1888
      4 N           2.2851    1.3773   -0.4254 N.am    1  UNL1       -0.2594
      5 C           2.1540    0.3828    0.5933 C.3     1  UNL1        0.1529
      6 S           1.8368   -1.1642   -0.3368 S.3     1  UNL1       -0.1184
      7 CA          1.0320    1.0457    1.2252 C.3     1  UNL1        0.1995
      8 C           1.2254    2.1601    0.2455 C.2     1  UNL1        0.2491
      9 O           0.6623    3.2653    0.0287 O.2     1  UNL1       -0.2729
     10 N          -0.2403    0.3858    0.9592 N.am    1  UNL1       -0.1944
     11 C          -1.4590    0.7770    1.5921 C.2     1  UNL1        0.2565
     12 O          -1.4606    1.6899    2.4611 O.2     1  UNL1       -0.2724
     13 C          -2.7513    0.1212    1.2134 C.3     1  UNL1        0.2032
     14 C          -2.7556   -1.3573    1.4767 C.ar    1  UNL1       -0.0030
     15 C          -1.8894   -2.2288    0.7954 C.ar    1  UNL1       -0.0033
     16 C          -1.9127   -3.5992    1.0684 C.ar    1  UNL1       -0.0003
     17 C          -2.8017   -4.1068    2.0196 C.ar    1  UNL1       -0.0000
     18 C          -3.6678   -3.2438    2.6973 C.ar    1  UNL1       -0.0003
     19 C          -3.6439   -1.8725    2.4262 C.ar    1  UNL1       -0.0033
     20 C          -3.1721    0.4611   -0.1839 C.2     1  UNL1        0.3771
     21 O          -2.4512    0.1488   -1.1692 O.co2   1  UNL1       -0.2448
     22 O          -4.3767    1.1177   -0.3934 O.co2   1  UNL1       -0.2448
     23 C           3.7136    1.8148   -2.3648 C.2     1  UNL1        0.3833
     24 O           4.4240    2.5453   -1.6234 O.co2   1  UNL1       -0.2438
     25 OXT         4.0148    1.7113   -3.7172 O.co2   1  UNL1       -0.2438
     26 C           1.9414   -1.0109   -3.0768 C.3     1  UNL1        0.0131
@<TRIPOS>BOND
     1     1     2    1
     2     2     3    1
     3     3     4    1
     4     4     5    1
     5     5     6    1
     6     5     7    1
     7     7     8    1
     8     8     9    2
     9     7    10    1
    10    10    11   am
    11    11    12    2
    12    11    13    1
    13    13    14    1
    14    14    15   ar
    15    15    16   ar
    16    16    17   ar
    17    17    18   ar
    18    18    19   ar
    19    13    20    1
    20    20    21   ar
    21    20    22   ar
    22     3    23    1
    23    23    24   ar
    24    23    25   ar
    25     2    26    1
    26     6     2    1
    27     8     4   am
    28    19    14   ar
@<TRIPOS>MOLECULE
Carindacillin_Penicillins4_Active
 35 39 0 0 0
SMALL
GASTEIGER

@<TRIPOS>ATOM
      1 C          -5.7967   -1.9718    1.9659 C.3     1  UNL1        0.0131
      2 C          -4.8168   -0.8600    1.6145 C.3     1  UNL1        0.0681
      3 CA         -5.4939    0.4624    1.1872 C.3     1  UNL1        0.1888
      4 N          -4.6190    0.9874    0.1736 N.am    1  UNL1       -0.2594
      5 C          -3.7751    0.1648   -0.6322 C.3     1  UNL1        0.1529
      6 S          -3.6830   -1.4301    0.2706 S.3     1  UNL1       -0.1184
      7 CA         -2.6504    1.0736   -0.5456 C.3     1  UNL1        0.1995
      8 C          -3.5499    2.0069    0.1981 C.2     1  UNL1        0.2491
      9 O          -3.4220    3.1514    0.7061 O.2     1  UNL1       -0.2729
     10 N          -1.6070    0.5987    0.3555 N.am    1  UNL1       -0.1944
     11 C          -0.3661    0.0846   -0.1252 C.2     1  UNL1        0.2563
     12 O          -0.1203    0.0624   -1.3632 O.2     1  UNL1       -0.2724
     13 C           0.6179   -0.4693    0.8575 C.3     1  UNL1        0.1992
     14 C           0.7513   -1.9581    0.7474 C.ar    1  UNL1       -0.0032
     15 C           0.2732   -2.7622    1.7885 C.ar    1  UNL1       -0.0033
     16 C           0.3727   -4.1541    1.7052 C.ar    1  UNL1       -0.0003
     17 C           0.9495   -4.7489    0.5780 C.ar    1  UNL1       -0.0000
     18 C           1.4252   -3.9517   -0.4670 C.ar    1  UNL1       -0.0003
     19 C           1.3257   -2.5599   -0.3843 C.ar    1  UNL1       -0.0033
     20 C           1.9387    0.2333    0.8090 C.2     1  UNL1        0.3341
     21 O           2.3760    0.7732    1.8604 O.2     1  UNL1       -0.2488
     22 O           2.6663    0.2647   -0.3916 O.3     1  UNL1       -0.4236
     23 C           3.9267    0.8480   -0.5822 C.ar    1  UNL1        0.1481
     24 C           4.4801    0.8216   -1.8733 C.ar    1  UNL1        0.0330
     25 C           5.7341    1.3933   -2.0824 C.ar    1  UNL1       -0.0231
     26 C           6.4256    1.9854   -1.0605 C.ar    1  UNL1       -0.0259
     27 C           7.7195    2.5344   -1.5072 C.3     1  UNL1        0.0264
     28 C           7.7574    2.2094   -3.0071 C.3     1  UNL1        0.0093
     29 C           6.4625    1.4653   -3.3630 C.3     1  UNL1        0.0265
     30 C           5.9066    2.0314    0.2327 C.ar    1  UNL1       -0.0014
     31 C           4.6518    1.4528    0.4683 C.ar    1  UNL1        0.0373
     32 C          -6.8731    0.3028    0.6118 C.2     1  UNL1        0.3833
     33 O          -7.0635   -0.3964   -0.4198 O.co2   1  UNL1       -0.2438
     34 OXT        -7.9473    0.9375    1.2231 O.co2   1  UNL1       -0.2438
     35 C          -3.9767   -0.5829    2.8462 C.3     1  UNL1        0.0131
@<TRIPOS>BOND
     1     1     2    1
     2     2     3    1
     3     3     4    1
     4     4     5    1
     5     5     6    1
     6     5     7    1
     7     7     8    1
     8     8     9    2
     9     7    10    1
    10    10    11   am
    11    11    12    2
    12    11    13    1
    13    13    14    1
    14    14    15   ar
    15    15    16   ar
    16    16    17   ar
    17    17    18   ar
    18    18    19   ar
    19    13    20    1
    20    20    21    2
    21    20    22    1
    22    22    23    1
    23    23    24   ar
    24    24    25   ar
    25    25    26   ar
    26    26    27    1
    27    27    28    1
    28    28    29    1
    29    26    30   ar
    30    30    31   ar
    31     3    32    1
    32    32    33   ar
    33    32    34   ar
    34     2    35    1
    35     6     2    1
    36     8     4   am
    37    19    14   ar
    38    31    23   ar
    39    29    25    1
@<TRIPOS>MOLECULE
Temocillin_Penicillins4_Active
 27 29 0 0 0
SMALL
GASTEIGER

@<TRIPOS>ATOM
      1 C          -3.5748    1.6097   -0.2479 C.3     1  UNL1        0.0131
      2 C          -3.3024    0.1350   -0.4611 C.3     1  UNL1        0.0682
      3 C          -2.5665   -0.0555   -1.8081 C.3     1  UNL1        0.1889
      4 N          -1.5340   -1.0227   -1.5432 N.am    1  UNL1       -0.2555
      5 C          -1.3300   -1.6066   -0.2496 C.3     1  UNL1        0.1776
      6 S          -2.2039   -0.4772    0.8937 S.3     1  UNL1       -0.1161
      7 C           0.1100   -1.5305   -0.3412 C.3     1  UNL1        0.2671
      8 C          -0.0679   -1.0214   -1.7456 C.2     1  UNL1        0.2736
      9 O           0.7035   -0.6829   -2.6825 O.2     1  UNL1       -0.2703
     10 N           0.7546   -0.5855    0.5889 N.am    1  UNL1       -0.1704
     11 C           0.7888    0.8491    0.5021 C.2     1  UNL1        0.2584
     12 O           0.1366    1.4645   -0.3830 O.2     1  UNL1       -0.2723
     13 C           1.6139    1.6352    1.4741 C.3     1  UNL1        0.2037
     14 C           3.0421    1.1760    1.5036 C.ar    1  UNL1        0.0040
     15 C           4.0381    1.8653    0.8234 C.ar    1  UNL1        0.0322
     16 S           5.4506    0.9977    1.0816 S.2     1  UNL1       -0.0862
     17 C           4.8299   -0.2447    2.0249 C.ar    1  UNL1        0.0352
     18 C           3.4714    0.0087    2.1594 C.ar    1  UNL1        0.0042
     19 C           0.9952    1.6944    2.8382 C.2     1  UNL1        0.3772
     20 O           0.6276    0.6425    3.4281 O.co2   1  UNL1       -0.2448
     21 O           0.8614    2.9214    3.4738 O.co2   1  UNL1       -0.2448
     22 O           0.6742   -2.8234   -0.2781 O.3     1  UNL1       -0.3284
     23 C           2.0343   -2.7304   -0.6171 C.3     1  UNL1        0.1766
     24 C          -3.4055   -0.4520   -2.9881 C.2     1  UNL1        0.3833
     25 O          -3.8157   -1.6366   -3.1156 O.co2   1  UNL1       -0.2438
     26 O          -3.7122    0.4946   -3.9571 O.co2   1  UNL1       -0.2438
     27 C          -4.6191   -0.6248   -0.3735 C.3     1  UNL1        0.0131
@<TRIPOS>BOND
     1     1     2    1
     2     2     3    1
     3     3     4    1
     4     4     5    1
     5     5     6    1
     6     5     7    1
     7     7     8    1
     8     8     9    2
     9     7    10    1
    10    10    11   am
    11    11    12    2
    12    11    13    1
    13    13    14    1
    14    14    15   ar
    15    15    16   ar
    16    16    17   ar
    17    17    18   ar
    18    13    19    1
    19    19    20   ar
    20    19    21   ar
    21     7    22    1
    22    22    23    1
    23     3    24    1
    24    24    25   ar
    25    24    26   ar
    26     2    27    1
    27     6     2    1
    28     8     4   am
    29    18    14   ar
@<TRIPOS>MOLECULE
Piperacillin_Penicillins4_Active
 36 39 0 0 0
SMALL
GASTEIGER

@<TRIPOS>ATOM
      1 C          -7.0271    4.0007    1.4660 C.3     1  UNL1        0.0233
      2 C          -6.8821    3.1483    0.2186 C.3     1  UNL1        0.0940
      3 N          -5.7038    2.2983    0.3221 N.am    1  UNL1       -0.2706
      4 C          -5.6881    1.2003    1.2893 C.3     1  UNL1        0.1158
      5 C          -4.2896    1.0488    1.8841 C.3     1  UNL1        0.1244
      6 N          -3.3114    0.8309    0.8156 N.am    1  UNL1       -0.2039
      7 C          -3.3710    1.6894   -0.3403 C.2     1  UNL1        0.3099
      8 O          -2.3972    1.7842   -1.1352 O.2     1  UNL1       -0.2645
      9 C          -4.5952    2.4694   -0.5743 C.2     1  UNL1        0.3034
     10 O          -4.6619    3.2839   -1.5346 O.2     1  UNL1       -0.2649
     11 C          -2.3578   -0.2395    0.9441 C.2     1  UNL1        0.3301
     12 O          -2.2770   -0.8749    2.0301 O.2     1  UNL1       -0.2503
     13 N          -1.5153   -0.5977   -0.1606 N.am    1  UNL1       -0.1759
     14 CA         -0.5002   -1.6509   -0.1638 C.3     1  UNL1        0.1965
     15 C          -1.0796   -3.0219    0.0429 C.ar    1  UNL1        0.0063
     16 C          -1.2245   -3.5809    1.3225 C.ar    1  UNL1       -0.0021
     17 C          -1.7888   -4.8503    1.4777 C.ar    1  UNL1       -0.0003
     18 C          -2.2163   -5.5662    0.3563 C.ar    1  UNL1       -0.0000
     19 C          -2.0815   -5.0119   -0.9196 C.ar    1  UNL1       -0.0003
     20 C          -1.5171   -3.7421   -1.0746 C.ar    1  UNL1       -0.0021
     21 C           0.6815   -1.3216    0.6983 C.2     1  UNL1        0.2660
     22 O           0.5445   -1.1468    1.9394 O.2     1  UNL1       -0.2711
     23 N           1.9701   -1.2142    0.0930 N.am    1  UNL1       -0.1934
     24 CA          3.1660   -0.8647    0.8529 C.3     1  UNL1        0.1996
     25 C           4.3551   -0.7800    0.0312 C.3     1  UNL1        0.1529
     26 N           4.4139    0.6464    0.1039 N.am    1  UNL1       -0.2594
     27 C           3.2512    0.6205    1.0156 C.2     1  UNL1        0.2491
     28 O           2.5717    1.4925    1.6176 O.2     1  UNL1       -0.2729
     29 CA          4.7705    1.4765   -1.0152 C.3     1  UNL1        0.1888
     30 C           4.9726    0.4999   -2.1980 C.3     1  UNL1        0.0681
     31 S           4.1946   -1.1181   -1.7611 S.3     1  UNL1       -0.1184
     32 C           4.2825    1.0617   -3.4235 C.3     1  UNL1        0.0131
     33 C           6.4343    0.2390   -2.5385 C.3     1  UNL1        0.0131
     34 C           5.9330    2.3616   -0.6764 C.2     1  UNL1        0.3833
     35 O           5.8792    3.5896   -0.9455 O.co2   1  UNL1       -0.2438
     36 OXT         7.0647    1.8397   -0.0602 O.co2   1  UNL1       -0.2438
@<TRIPOS>BOND
     1     1     2    1
     2     2     3    1
     3     3     4    1
     4     4     5    1
     5     5     6    1
     6     6     7   am
     7     7     8    2
     8     7     9    1
     9     9    10    2
    10     6    11   am
    11    11    12    2
    12    11    13   am
    13    14    13    1
    14    14    15    1
    15    15    16   ar
    16    16    17   ar
    17    17    18   ar
    18    18    19   ar
    19    19    20   ar
    20    14    21    1
    21    21    22    2
    22    21    23   am
    23    24    23    1
    24    24    25    1
    25    25    26    1
    26    26    27   am
    27    27    28    2
    28    26    29    1
    29    29    30    1
    30    30    31    1
    31    30    32    1
    32    30    33    1
    33    29    34    1
    34    34    35   ar
    35    34    36   ar
    36     9     3   am
    37    20    15   ar
    38    27    24    1
    39    25    31    1
@<TRIPOS>MOLECULE
Azlocillin_Penicillins4_Active
 32 35 0 0 0
SMALL
GASTEIGER

@<TRIPOS>ATOM
      1 C           2.2825   -3.7351   -2.2483 C.3     1  UNL1        0.0131
      2 C           3.1004   -2.4708   -2.4104 C.3     1  UNL1        0.0681
      3 CA          2.3648   -1.5196   -3.3840 C.3     1  UNL1        0.1888
      4 N           2.4148   -0.2241   -2.7630 N.am    1  UNL1       -0.2594
      5 C           3.0879    0.0252   -1.5269 C.3     1  UNL1        0.1529
      6 S           3.2416   -1.6357   -0.7692 S.3     1  UNL1       -0.1184
      7 CA          2.0515    0.9076   -1.0334 C.3     1  UNL1        0.1996
      8 C           1.3694    0.7363   -2.3542 C.2     1  UNL1        0.2491
      9 O           0.3066    1.1689   -2.8713 O.2     1  UNL1       -0.2729
     10 N           1.2477    0.3016    0.0231 N.am    1  UNL1       -0.1934
     11 C           0.0802    0.9236    0.5619 C.2     1  UNL1        0.2660
     12 O          -0.2608    2.0757    0.1775 O.2     1  UNL1       -0.2711
     13 CA         -0.7561    0.1657    1.5530 C.3     1  UNL1        0.1965
     14 C          -1.3504   -1.0495    0.9114 C.ar    1  UNL1        0.0063
     15 C          -2.3129   -0.9363   -0.1047 C.ar    1  UNL1       -0.0021
     16 C          -2.8291   -2.0839   -0.7141 C.ar    1  UNL1       -0.0003
     17 C          -2.3824   -3.3476   -0.3155 C.ar    1  UNL1       -0.0000
     18 C          -1.4204   -3.4635    0.6930 C.ar    1  UNL1       -0.0003
     19 C          -0.9045   -2.3164    1.3038 C.ar    1  UNL1       -0.0021
     20 N          -1.8098    0.9984    2.1254 N.am    1  UNL1       -0.1759
     21 C          -1.5560    2.0066    3.1079 C.2     1  UNL1        0.3310
     22 O          -0.3876    2.1767    3.5518 O.2     1  UNL1       -0.2503
     23 N          -2.6343    2.8225    3.5810 N.am    1  UNL1       -0.1941
     24 C          -4.0121    2.7281    3.1259 C.3     1  UNL1        0.1276
     25 C          -4.7753    3.8379    3.8795 C.3     1  UNL1        0.1388
     26 N          -3.7995    4.5149    4.7276 N.am    1  UNL1       -0.1862
     27 C          -2.5599    3.8784    4.5144 C.2     1  UNL1        0.3303
     28 O          -1.5011    4.2244    5.1021 O.2     1  UNL1       -0.2503
     29 C           2.8863   -1.4611   -4.7886 C.2     1  UNL1        0.3833
     30 O           2.1971   -1.9360   -5.7279 O.co2   1  UNL1       -0.2438
     31 OXT         4.1173   -0.8767   -5.0648 O.co2   1  UNL1       -0.2438
     32 C           4.5042   -2.8510   -2.8631 C.3     1  UNL1        0.0131
@<TRIPOS>BOND
     1     1     2    1
     2     2     3    1
     3     3     4    1
     4     4     5    1
     5     5     6    1
     6     5     7    1
     7     7     8    1
     8     8     9    2
     9     7    10    1
    10    10    11   am
    11    11    12    2
    12    11    13    1
    13    13    14    1
    14    14    15   ar
    15    15    16   ar
    16    16    17   ar
    17    17    18   ar
    18    18    19   ar
    19    13    20    1
    20    20    21   am
    21    21    22    2
    22    21    23   am
    23    23    24    1
    24    24    25    1
    25    25    26    1
    26    26    27   am
    27    27    28    2
    28     3    29    1
    29    29    30   ar
    30    29    31   ar
    31     2    32    1
    32     6     2    1
    33     8     4   am
    34    19    14   ar
    35    27    23   am
@<TRIPOS>MOLECULE
Mezlocillin_Penicillins4_Active
 36 39 0 0 0
SMALL
GASTEIGER

@<TRIPOS>ATOM
      1 C           5.8781    0.8371   -2.9645 C.3     1  UNL1        0.0131
      2 C           4.7786    0.7760   -1.9127 C.3     1  UNL1        0.0681
      3 CA          4.8833    1.8724   -0.8280 C.3     1  UNL1        0.1888
      4 N           4.4334    1.2185    0.3713 N.am    1  UNL1       -0.2594
      5 C           4.5360   -0.1933    0.5770 C.3     1  UNL1        0.1529
      6 S           4.7824   -0.8876   -1.1045 S.3     1  UNL1       -0.1184
      7 CA          3.2230   -0.2947    1.1770 C.3     1  UNL1        0.1996
      8 C           3.1341    1.1957    1.0751 C.2     1  UNL1        0.2491
      9 O           2.2747    2.0610    1.3860 O.2     1  UNL1       -0.2729
     10 N           2.2397   -0.9112    0.2924 N.am    1  UNL1       -0.1934
     11 C           0.8719   -1.0804    0.6645 C.2     1  UNL1        0.2660
     12 O           0.4741   -0.7248    1.8070 O.2     1  UNL1       -0.2711
     13 CA         -0.0772   -1.6963   -0.3194 C.3     1  UNL1        0.1965
     14 C          -0.5135   -3.0966    0.0078 C.ar    1  UNL1        0.0063
     15 C          -0.6612   -4.0165   -1.0369 C.ar    1  UNL1       -0.0021
     16 C          -1.0866   -5.3219   -0.7733 C.ar    1  UNL1       -0.0003
     17 C          -1.3723   -5.7129    0.5379 C.ar    1  UNL1       -0.0000
     18 C          -1.2348   -4.7981    1.5855 C.ar    1  UNL1       -0.0003
     19 C          -0.8094   -3.4931    1.3217 C.ar    1  UNL1       -0.0021
     20 N          -1.1963   -0.8162   -0.6551 N.am    1  UNL1       -0.1759
     21 C          -2.2739   -0.4540    0.2184 C.2     1  UNL1        0.3310
     22 O          -2.3278   -0.9136    1.3906 O.2     1  UNL1       -0.2503
     23 N          -3.2949    0.4345   -0.2505 N.am    1  UNL1       -0.1941
     24 C          -3.3380    1.0302   -1.5822 C.3     1  UNL1        0.1276
     25 C          -4.6079    1.9122   -1.6121 C.3     1  UNL1        0.1420
     26 N          -5.2164    1.7640   -0.2984 N.am    1  UNL1       -0.1458
     27 C          -4.4187    0.8955    0.4697 C.2     1  UNL1        0.3327
     28 O          -4.6802    0.5716    1.6591 O.2     1  UNL1       -0.2503
     29 S          -6.6615    2.5549    0.2315 S.O2    1  UNL1        0.0621
     30 O          -7.6427    1.5305    0.7270 O.2     1  UNL1       -0.1541
     31 O          -7.2732    3.3065   -0.9170 O.2     1  UNL1       -0.1541
     32 C          -6.2728    3.6998    1.5343 C.3     1  UNL1        0.2000
     33 C           6.2704    2.4066   -0.6095 C.2     1  UNL1        0.3833
     34 O           7.1969    1.6502   -0.2130 O.co2   1  UNL1       -0.2438
     35 OXT         6.5325    3.7484   -0.8490 O.co2   1  UNL1       -0.2438
     36 C           3.4501    0.9456   -2.6235 C.3     1  UNL1        0.0131
@<TRIPOS>BOND
     1     1     2    1
     2     2     3    1
     3     3     4    1
     4     4     5    1
     5     5     6    1
     6     5     7    1
     7     7     8    1
     8     8     9    2
     9     7    10    1
    10    10    11   am
    11    11    12    2
    12    11    13    1
    13    13    14    1
    14    14    15   ar
    15    15    16   ar
    16    16    17   ar
    17    17    18   ar
    18    18    19   ar
    19    13    20    1
    20    20    21   am
    21    21    22    2
    22    21    23   am
    23    23    24    1
    24    24    25    1
    25    25    26    1
    26    26    27   am
    27    27    28    2
    28    26    29    1
    29    29    30    2
    30    29    31    2
    31    29    32    1
    32     3    33    1
    33    33    34   ar
    34    33    35   ar
    35     2    36    1
    36     6     2    1
    37     8     4   am
    38    19    14   ar
    39    27    23   am
@<TRIPOS>MOLECULE
Ertapenem_Carbapenems_Active
 33 36 0 0 0
SMALL
GASTEIGER

@<TRIPOS>ATOM
      1 C          -4.2902    1.9840    1.7314 C.3     1  UNL1        0.0070
      2 C          -3.7553    1.2787    0.4908 C.3     1  UNL1        0.0487
      3 C          -4.8240    1.0547   -0.6192 C.3     1  UNL1        0.0955
      4 C          -6.2165    1.2594   -0.2978 C.3     1  UNL1        0.1261
      5 C          -6.4030   -0.2225   -0.4199 C.2     1  UNL1        0.2331
      6 O          -7.3790   -1.0126   -0.3343 O.2     1  UNL1       -0.2744
      7 N          -4.9425   -0.3745   -0.5902 N.am    1  UNL1       -0.2537
      8 C          -3.9769   -1.0448    0.1762 C.2     1  UNL1        0.1360
      9 C          -3.2728   -0.1236    0.8320 C.2     1  UNL1        0.0245
     10 S          -1.9277   -0.4454    1.9779 S.3     1  UNL1       -0.1159
     11 C          -0.6751   -0.4090    0.6626 C.3     1  UNL1        0.0709
     12 C           0.5582   -1.1511    1.1123 C.3     1  UNL1        0.0393
     13 C           1.6742   -0.1220    1.0937 C.3     1  UNL1        0.1516
     14 N           1.2254    1.0049    0.2901 N.3     1  UNL1       -0.2093
     15 C          -0.2231    1.0156    0.4194 C.3     1  UNL1        0.1003
     16 C           2.9629   -0.6642    0.5508 C.2     1  UNL1        0.2614
     17 O           3.0244   -1.8402    0.0979 O.2     1  UNL1       -0.2715
     18 N           4.1229    0.1790    0.5635 N.am    1  UNL1       -0.1780
     19 C           5.4334   -0.1536    0.0854 C.ar    1  UNL1        0.0736
     20 C           5.7240   -1.4048   -0.4781 C.ar    1  UNL1        0.0166
     21 C           7.0129   -1.6921   -0.9339 C.ar    1  UNL1        0.0015
     22 C           8.0206   -0.7302   -0.8298 C.ar    1  UNL1        0.0067
     23 C           7.7454    0.5239   -0.2697 C.ar    1  UNL1        0.0811
     24 C           6.4487    0.8037    0.1853 C.ar    1  UNL1        0.0232
     25 C           8.8097    1.5346   -0.1620 C.2     1  UNL1        0.3878
     26 O           8.5689    2.6645    0.3406 O.co2   1  UNL1       -0.2406
     27 O          10.0931    1.2513   -0.6149 O.co2   1  UNL1       -0.2406
     28 C          -3.8752   -2.5116    0.2620 C.2     1  UNL1        0.4014
     29 O          -4.6614   -3.2292   -0.4097 O.co2   1  UNL1       -0.2391
     30 O          -2.9239   -3.1216    1.0696 O.co2   1  UNL1       -0.2391
     31 C          -6.9592    2.0550   -1.3837 C.3     1  UNL1        0.1623
     32 C          -6.8061    1.4997   -2.7964 C.3     1  UNL1        0.0361
     33 O          -8.3129    2.1440   -1.0610 O.3     1  UNL1       -0.2226
@<TRIPOS>BOND
     1     2     1    1
     2     2     3    1
     3     3     4    1
     4     4     5    1
     5     5     6    2
     6     5     7   am
     7     7     8    1
     8     8     9    2
     9     9    10    1
    10    11    10    1
    11    11    12    1
    12    12    13    1
    13    13    14    1
    14    14    15    1
    15    13    16    1
    16    16    17    2
    17    16    18   am
    18    18    19    1
    19    19    20   ar
    20    20    21   ar
    21    21    22   ar
    22    22    23   ar
    23    23    24   ar
    24    23    25    1
    25    25    26   ar
    26    25    27   ar
    27     8    28    1
    28    28    29   ar
    29    28    30   ar
    30     4    31    1
    31    31    32    1
    32    31    33    1
    33     9     2    1
    34     3     7    1
    35    15    11    1
    36    24    19   ar
@<TRIPOS>MOLECULE
Doripenem_Carbapenems_Active
 27 29 0 0 0
SMALL
GASTEIGER

@<TRIPOS>ATOM
      1 C          -1.5432    0.7215   -2.0564 C.3     1  UNL1        0.0070
      2 C          -2.3164   -0.4610   -1.4845 C.3     1  UNL1        0.0487
      3 C          -3.6327   -0.0587   -0.7570 C.3     1  UNL1        0.0955
      4 C          -3.8462    1.3316   -0.4214 C.3     1  UNL1        0.1261
      5 C          -3.6743    0.9496    1.0154 C.2     1  UNL1        0.2331
      6 O          -3.7343    1.5572    2.1159 O.2     1  UNL1       -0.2744
      7 N          -3.3124   -0.4200    0.5927 N.am    1  UNL1       -0.2537
      8 C          -2.1349   -1.1656    0.7552 C.2     1  UNL1        0.1360
      9 C          -1.5073   -1.1908   -0.4200 C.2     1  UNL1        0.0245
     10 S           0.0505   -2.0201   -0.7632 S.3     1  UNL1       -0.1159
     11 C           1.0439   -0.5161   -0.4982 C.3     1  UNL1        0.0705
     12 C           2.3897   -0.6862   -1.1443 C.3     1  UNL1        0.0315
     13 C           3.2755   -1.2149   -0.0387 C.3     1  UNL1        0.0931
     14 N           2.6951   -0.8351    1.2442 N.3     1  UNL1       -0.2170
     15 C           1.3469   -0.3439    0.9764 C.3     1  UNL1        0.0998
     16 C           4.7008   -0.6924   -0.1677 C.3     1  UNL1        0.1340
     17 N           4.7391    0.7574   -0.0344 N.3     1  UNL1       -0.0626
     18 S           6.3878    1.2540   -0.2040 S.O2    1  UNL1        0.1465
     19 O           6.8973    0.8719   -1.5655 O.2     1  UNL1       -0.1371
     20 O           6.4736    2.7451   -0.0437 O.2     1  UNL1       -0.1371
     21 N           7.3568    0.4946    1.0087 N.3     1  UNL1        0.0528
     22 C          -1.7143   -1.7561    2.0374 C.2     1  UNL1        0.4014
     23 O          -2.3965   -1.5417    3.0733 O.co2   1  UNL1       -0.2391
     24 O          -0.5873   -2.5631    2.1240 O.co2   1  UNL1       -0.2391
     25 C          -5.2773    1.8039   -0.7090 C.3     1  UNL1        0.1623
     26 C          -5.4437    2.1135   -2.1842 C.3     1  UNL1        0.0361
     27 O          -6.2359    0.8655   -0.3122 O.3     1  UNL1       -0.2226
@<TRIPOS>BOND
     1     2     1    1
     2     2     3    1
     3     3     4    1
     4     4     5    1
     5     5     6    2
     6     5     7   am
     7     7     8    1
     8     8     9    2
     9     9    10    1
    10    11    10    1
    11    11    12    1
    12    12    13    1
    13    13    14    1
    14    14    15    1
    15    13    16    1
    16    16    17    1
    17    17    18    1
    18    18    19    2
    19    18    20    2
    20    18    21    1
    21     8    22    1
    22    22    23   ar
    23    22    24   ar
    24     4    25    1
    25    25    26    1
    26    25    27    1
    27     9     2    1
    28     3     7    1
    29    15    11    1
@<TRIPOS>MOLECULE
Imipenem_Carbapenems_Active
 20 21 0 0 0
SMALL
GASTEIGER

@<TRIPOS>ATOM
      1 C          -4.8392   -0.7918    0.4775 C.3     1  UNL1        0.0361
      2 C          -3.8307   -0.1214    1.3896 C.3     1  UNL1        0.1623
      3 C          -2.4250   -0.2079    0.7816 C.3     1  UNL1        0.1261
      4 C          -1.4527    0.4549    1.6059 C.3     1  UNL1        0.0959
      5 C          -0.1361   -0.3216    1.8172 C.3     1  UNL1        0.0548
      6 C           0.8916    0.4697    1.0250 C.2     1  UNL1        0.0249
      7 C           0.3127    1.4476    0.3317 C.2     1  UNL1        0.1361
      8 N          -1.0668    1.3703    0.5730 N.am    1  UNL1       -0.2537
      9 C          -2.1731    0.8468   -0.2553 C.2     1  UNL1        0.2331
     10 O          -2.6481    1.1218   -1.3880 O.2     1  UNL1       -0.2744
     11 C           0.9274    2.3892   -0.6191 C.2     1  UNL1        0.4014
     12 O           0.2013    3.2102   -1.2381 O.co2   1  UNL1       -0.2391
     13 O           2.2982    2.3934   -0.8432 O.co2   1  UNL1       -0.2391
     14 S           2.6358    0.0570    1.0166 S.3     1  UNL1       -0.1144
     15 C           2.4363   -1.0864   -0.3778 C.3     1  UNL1        0.0882
     16 C           3.7795   -1.7030   -0.7221 C.3     1  UNL1        0.1391
     17 N           3.6386   -2.6393   -1.8307 N.2     1  UNL1       -0.2502
     18 C           3.0898   -3.8100   -1.7173 C.2     1  UNL1        0.2001
     19 N           2.5828   -4.2785   -0.4693 N.pl3   1  UNL1       -0.1044
     20 O          -4.2222    1.1990    1.6355 O.3     1  UNL1       -0.2226
@<TRIPOS>BOND
     1     2     1    1
     2     2     3    1
     3     3     4    1
     4     4     5    1
     5     5     6    1
     6     6     7    2
     7     7     8    1
     8     8     9   am
     9     9    10    2
    10     7    11    1
    11    11    12   ar
    12    11    13   ar
    13     6    14    1
    14    14    15    1
    15    15    16    1
    16    16    17    1
    17    17    18    2
    18    18    19    1
    19     2    20    1
    20     3     9    1
    21     8     4    1
@<TRIPOS>MOLECULE
Meropenem_Carbapenems_Active
 26 28 0 0 0
SMALL
GASTEIGER

@<TRIPOS>ATOM
      1 C          -2.0783   -2.5826    0.1802 C.3     1  UNL1        0.0070
      2 C          -1.8555   -1.1004    0.4573 C.3     1  UNL1        0.0487
      3 C          -3.0839   -0.2031    0.1240 C.3     1  UNL1        0.0955
      4 C          -4.1802   -0.7728   -0.6221 C.3     1  UNL1        0.1261
      5 C          -3.7684    0.1045   -1.7678 C.2     1  UNL1        0.2331
      6 O          -4.2105    0.3352   -2.9221 O.2     1  UNL1       -0.2744
      7 N          -2.5809    0.5296   -0.9984 N.am    1  UNL1       -0.2537
      8 C          -1.2065    0.3944   -1.2430 C.2     1  UNL1        0.1360
      9 C          -0.7446   -0.5506   -0.4246 C.2     1  UNL1        0.0245
     10 S           0.9535   -1.1301   -0.3371 S.3     1  UNL1       -0.1159
     11 C           1.3419   -0.0840    1.0991 C.3     1  UNL1        0.0709
     12 C           2.5867   -0.6098    1.7688 C.3     1  UNL1        0.0393
     13 C           3.5705    0.5400    1.7369 C.3     1  UNL1        0.1498
     14 N           3.1267    1.4868    0.7263 N.3     1  UNL1       -0.2093
     15 C           1.6845    1.3216    0.6442 C.3     1  UNL1        0.1003
     16 C           4.9504    0.0492    1.4192 C.2     1  UNL1        0.2416
     17 O           5.1741   -0.4850    0.3004 O.2     1  UNL1       -0.2734
     18 N           6.0116    0.1741    2.3792 N.am    1  UNL1       -0.2749
     19 C           7.3790   -0.1510    2.0087 C.3     1  UNL1        0.1149
     20 C           5.7371    0.5562    3.7565 C.3     1  UNL1        0.1149
     21 C          -0.4930    1.1195   -2.3092 C.2     1  UNL1        0.4014
     22 O           0.7318    0.9271   -2.5223 O.co2   1  UNL1       -0.2391
     23 O          -1.1826    2.0410   -3.0869 O.co2   1  UNL1       -0.2391
     24 C          -5.5166   -0.3054   -0.0525 C.3     1  UNL1        0.1623
     25 C          -6.6545   -0.7930   -0.9308 C.3     1  UNL1        0.0361
     26 O          -5.6922   -0.8116    1.2372 O.3     1  UNL1       -0.2226
@<TRIPOS>BOND
     1     2     1    1
     2     2     3    1
     3     3     4    1
     4     4     5    1
     5     5     6    2
     6     5     7   am
     7     7     8    1
     8     8     9    2
     9     9    10    1
    10    11    10    1
    11    11    12    1
    12    12    13    1
    13    13    14    1
    14    14    15    1
    15    13    16    1
    16    16    17    2
    17    16    18   am
    18    18    19    1
    19    18    20    1
    20     8    21    1
    21    21    22   ar
    22    21    23   ar
    23     4    24    1
    24    24    25    1
    25    24    26    1
    26     9     2    1
    27     3     7    1
    28    15    11    1
@<TRIPOS>MOLECULE
Biapenem_Carbapenems_Active
 24 27 0 0 0
SMALL
GASTEIGER

@<TRIPOS>ATOM
      1 C          -0.2645   -0.1479   -3.0424 C.3     1  UNL1        0.0070
      2 C          -0.4066    0.1664   -1.5581 C.3     1  UNL1        0.0485
      3 C           0.7916    0.9605   -0.9607 C.3     1  UNL1        0.0954
      4 C           1.9969    1.0956   -1.7424 C.3     1  UNL1        0.1261
      5 C           2.6661    0.1839   -0.7578 C.2     1  UNL1        0.2330
      6 O           3.8301   -0.2699   -0.6049 O.2     1  UNL1       -0.2744
      7 N           1.3625   -0.0304   -0.0961 N.am    1  UNL1       -0.2581
      8 C           0.5879   -1.1841    0.0948 C.2     1  UNL1        0.0694
      9 C          -0.4515   -1.1145   -0.7369 C.2     1  UNL1        0.0193
     10 S          -1.7550   -2.3500   -0.9062 S.3     1  UNL1       -0.1082
     11 C          -2.9336   -1.5822    0.2667 C.3     1  UNL1        0.1609
     12 C          -3.3353   -0.1550   -0.1896 C.3     1  UNL1        0.1916
     13 N          -2.9049    0.6474    0.9247 N.ar    1  UNL1       -0.1127
     14 C          -2.8282    1.9543    1.2047 C.ar    1  UNL1        0.2427
     15 N          -2.2271    2.1047    2.4169 N.ar    1  UNL1       -0.1507
     16 C          -1.9430    0.8382    2.8274 C.ar    1  UNL1        0.4277
     17 N          -2.3760   -0.0204    1.8961 N.ar    1  UNL1       -0.0563
     18 C          -2.3195   -1.4425    1.6845 C.3     1  UNL1        0.3628
     19 C           0.9744   -2.2834    0.9952 C.2     1  UNL1        0.0867
     20 O           0.2931   -3.3395    1.0647 O.co2   1  UNL1       -0.5433
     21 O           2.1135   -2.1567    1.7795 O.co2   1  UNL1       -0.5433
     22 C           2.5412    2.5287   -1.6925 C.3     1  UNL1        0.1623
     23 C           3.8295    2.6287   -2.4853 C.3     1  UNL1        0.0361
     24 O           2.7584    2.9682   -0.3823 O.3     1  UNL1       -0.2226
@<TRIPOS>UNITY_ATOM_ATTR
17 1
charge 1
21 1
charge -1
@<TRIPOS>BOND
     1     2     1    1
     2     2     3    1
     3     3     4    1
     4     4     5    1
     5     5     6    2
     6     5     7   am
     7     7     8    1
     8     8     9    2
     9     9    10    1
    10    10    11    1
    11    11    12    1
    12    12    13    1
    13    13    14   ar
    14    14    15   ar
    15    15    16   ar
    16    16    17   ar
    17    17    18    1
    18     8    19    1
    19    19    20   ar
    20    19    21   ar
    21     4    22    1
    22    22    23    1
    23    22    24    1
    24     9     2    1
    25     3     7    1
    26    18    11    1
    27    17    13   ar
@<TRIPOS>MOLECULE
Panipenem_Carbapenems_Active
 23 25 0 0 0
SMALL
GASTEIGER

@<TRIPOS>ATOM
      1 C          -5.0219    1.7861   -2.6675 C.3     1  UNL1        0.0361
      2 C          -3.5075    1.9591   -2.6290 C.3     1  UNL1        0.1623
      3 C          -2.9126    1.0435   -1.5421 C.3     1  UNL1        0.1261
      4 C          -1.4798    0.8898   -1.6391 C.3     1  UNL1        0.0959
      5 C          -0.7834    1.0463   -0.2751 C.3     1  UNL1        0.0548
      6 C          -0.3938   -0.3775    0.1122 C.2     1  UNL1        0.0250
      7 C          -0.7856   -1.2479   -0.8144 C.2     1  UNL1        0.1361
      8 N          -1.5666   -0.5495   -1.7363 N.am    1  UNL1       -0.2537
      9 C          -3.0499   -0.4203   -1.8603 C.2     1  UNL1        0.2331
     10 O          -4.0117   -1.2275   -1.9532 O.2     1  UNL1       -0.2744
     11 C          -0.7586   -2.7219   -0.7445 C.2     1  UNL1        0.4014
     12 O          -1.5478   -3.3857   -1.4736 O.co2   1  UNL1       -0.2391
     13 O           0.0939   -3.3978    0.1246 O.co2   1  UNL1       -0.2391
     14 S           0.0897   -0.8309    1.7867 S.3     1  UNL1       -0.1130
     15 C           1.3844    0.4528    1.8419 C.3     1  UNL1        0.1025
     16 C           1.3951    1.1963    3.1793 C.3     1  UNL1        0.0661
     17 C           2.8591    1.5160    3.4363 C.3     1  UNL1        0.2032
     18 N           3.6187    0.6448    2.5483 N.pl3   1  UNL1       -0.1897
     19 C           2.7792   -0.1289    1.6594 C.3     1  UNL1        0.2133
     20 C           5.0430    0.6982    2.4415 C.2     1  UNL1        0.3532
     21 N           5.7465    1.2548    3.3809 N.2     1  UNL1        0.1879
     22 C           5.7401    0.0545    1.2895 C.3     1  UNL1        0.1349
     23 O          -2.9305    1.7455   -3.8949 O.3     1  UNL1       -0.2226
@<TRIPOS>BOND
     1     2     1    1
     2     2     3    1
     3     3     4    1
     4     4     5    1
     5     5     6    1
     6     6     7    2
     7     7     8    1
     8     8     9   am
     9     9    10    2
    10     7    11    1
    11    11    12   ar
    12    11    13   ar
    13     6    14    1
    14    15    14    1
    15    15    16    1
    16    16    17    1
    17    17    18    1
    18    18    19    1
    19    18    20    1
    20    20    21    2
    21    20    22    1
    22     2    23    1
    23     3     9    1
    24     8     4    1
    25    19    15    1
@<TRIPOS>MOLECULE
Cefazolin_Cephalosporins1_Active
 29 32 0 0 0
SMALL
GASTEIGER

@<TRIPOS>ATOM
      1 C          -6.9525   -1.5910    0.7451 C.3     1  UNL1        0.0614
      2 C          -5.9994   -0.4511    0.7599 C.ar    1  UNL1        0.1120
      3 N          -5.0139   -0.3140    1.6727 N.ar    1  UNL1       -0.1448
      4 N          -4.2809    0.7826    1.4899 N.ar    1  UNL1       -0.1347
      5 C          -4.6825    1.5173    0.4304 C.ar    1  UNL1        0.1594
      6 S          -6.0047    0.8200   -0.3437 S.2     1  UNL1       -0.0435
      7 S          -3.8862    3.0347   -0.0820 S.3     1  UNL1       -0.0821
      8 C          -2.7492    2.1808   -1.2227 C.3     1  UNL1        0.0884
      9 C          -1.6311    1.5177   -0.4776 C.2     1  UNL1       -0.0020
     10 CA         -1.4922    0.1714   -0.4249 C.2     1  UNL1        0.1287
     11 N          -0.3570   -0.3460    0.2732 N.am    1  UNL1       -0.2421
     12 C           0.6659    0.3147    1.0412 C.3     1  UNL1        0.1570
     13 CA          1.5920   -0.7912    0.9227 C.3     1  UNL1        0.2002
     14 C           0.5118   -1.5411    0.2025 C.2     1  UNL1        0.2526
     15 O           0.4117   -2.6901   -0.3017 O.2     1  UNL1       -0.2726
     16 N           2.6952   -0.5165    0.0079 N.am    1  UNL1       -0.1934
     17 C           3.7291   -1.4665   -0.2529 C.2     1  UNL1        0.2668
     18 O           3.7372   -2.5832    0.3303 O.2     1  UNL1       -0.2711
     19 C           4.8277   -1.1190   -1.1962 C.3     1  UNL1        0.2171
     20 N           5.7869   -0.2445   -0.5431 N.ar    1  UNL1       -0.2013
     21 C           6.8845   -0.6111    0.1369 C.ar    1  UNL1        0.2219
     22 N           7.4694    0.5007    0.6277 N.ar    1  UNL1       -0.1048
     23 N           6.7095    1.5176    0.2422 N.ar    1  UNL1       -0.0225
     24 N           5.6856    1.0681   -0.4640 N.ar    1  UNL1       -0.0424
     25 S           1.0716    1.8779    0.1833 S.3     1  UNL1       -0.1141
     26 C          -0.6769    2.4253    0.2699 C.3     1  UNL1        0.0835
     27 C          -2.4014   -0.7780   -1.1127 C.2     1  UNL1        0.4007
     28 O          -2.4048   -1.9911   -0.7771 O.co2   1  UNL1       -0.2392
     29 OXT        -3.2455   -0.3664   -2.1372 O.co2   1  UNL1       -0.2392
@<TRIPOS>BOND
     1     1     2    1
     2     2     3   ar
     3     3     4   ar
     4     4     5   ar
     5     5     6   ar
     6     5     7    1
     7     7     8    1
     8     8     9    1
     9     9    10    2
    10    10    11    1
    11    11    12    1
    12    12    13    1
    13    13    14    1
    14    14    15    2
    15    13    16    1
    16    16    17   am
    17    17    18    2
    18    17    19    1
    19    19    20    1
    20    20    21   ar
    21    21    22   ar
    22    22    23   ar
    23    23    24   ar
    24    12    25    1
    25    25    26    1
    26    10    27    1
    27    27    28   ar
    28    27    29   ar
    29     6     2   ar
    30    26     9    1
    31    14    11   am
    32    24    20   ar
@<TRIPOS>MOLECULE
Cefalexin_Cephalosporins1_Active
 24 26 0 0 0
SMALL
GASTEIGER

@<TRIPOS>ATOM
      1 C           2.2629    2.3566   -3.5087 C.3     1  UNL1        0.0288
      2 C           1.8683    1.0716   -2.8598 C.2     1  UNL1       -0.0129
      3 CA          2.3485    0.6778   -1.6555 C.2     1  UNL1        0.1279
      4 N           1.8381   -0.5437   -1.1146 N.am    1  UNL1       -0.2421
      5 C           0.9553   -1.5336   -1.6763 C.3     1  UNL1        0.1570
      6 CA          0.5920   -2.0713   -0.3826 C.3     1  UNL1        0.2002
      7 C           1.5744   -1.1151    0.2246 C.2     1  UNL1        0.2526
      8 O           1.9628   -0.8660    1.3956 O.2     1  UNL1       -0.2726
      9 N          -0.7611   -1.7080    0.0240 N.am    1  UNL1       -0.1936
     10 C          -1.3143   -2.0823    1.2881 C.2     1  UNL1        0.2635
     11 O          -0.6601   -2.8101    2.0813 O.2     1  UNL1       -0.2714
     12 CA         -2.6649   -1.5860    1.6917 C.3     1  UNL1        0.1915
     13 C          -2.6466   -0.1171    1.9834 C.ar    1  UNL1        0.0038
     14 C          -2.4126    0.8242    0.9683 C.ar    1  UNL1       -0.0024
     15 C          -2.3915    2.1894    1.2671 C.ar    1  UNL1       -0.0003
     16 C          -2.6040    2.6205    2.5797 C.ar    1  UNL1       -0.0000
     17 C          -2.8376    1.6866    3.5934 C.ar    1  UNL1       -0.0003
     18 C          -2.8584    0.3206    3.2955 C.ar    1  UNL1       -0.0024
     19 N          -3.6505   -1.8955    0.6682 N.3     1  UNL1       -0.1182
     20 S          -0.3287   -0.6479   -2.6327 S.3     1  UNL1       -0.1141
     21 C           0.9462    0.1800   -3.6583 C.3     1  UNL1        0.0826
     22 C           3.2996    1.4766   -0.8419 C.2     1  UNL1        0.4006
     23 O           3.5504    2.6807   -1.1123 O.co2   1  UNL1       -0.2392
     24 OXT         3.9318    0.8920    0.2477 O.co2   1  UNL1       -0.2392
@<TRIPOS>BOND
     1     1     2    1
     2     2     3    2
     3     3     4    1
     4     4     5    1
     5     5     6    1
     6     6     7    1
     7     7     8    2
     8     6     9    1
     9     9    10   am
    10    10    11    2
    11    10    12    1
    12    12    13    1
    13    13    14   ar
    14    14    15   ar
    15    15    16   ar
    16    16    17   ar
    17    17    18   ar
    18    12    19    1
    19     5    20    1
    20    20    21    1
    21     3    22    1
    22    22    23   ar
    23    22    24   ar
    24    21     2    1
    25     7     4   am
    26    18    13   ar
@<TRIPOS>MOLECULE
Cefadroxil_Cephalosporins1_Active
 25 27 0 0 0
SMALL
GASTEIGER

@<TRIPOS>ATOM
      1 C          -4.1908   -1.5880   -2.3826 C.3     1  UNL1        0.0288
      2 C          -3.3369   -0.9162   -1.3598 C.2     1  UNL1       -0.0129
      3 CA         -3.3527   -1.2401   -0.0535 C.2     1  UNL1        0.1279
      4 N          -2.5734   -0.4217    0.8111 N.am    1  UNL1       -0.2421
      5 C          -2.3110    0.9953    0.7958 C.3     1  UNL1        0.1570
      6 CA         -1.0052    0.8517    1.4013 C.3     1  UNL1        0.2002
      7 C          -1.3068   -0.6101    1.5484 C.2     1  UNL1        0.2526
      8 O          -0.6983   -1.5995    2.0330 O.2     1  UNL1       -0.2726
      9 N           0.0794    1.0161    0.4417 N.am    1  UNL1       -0.1936
     10 C           0.9723    2.1310    0.4859 C.2     1  UNL1        0.2635
     11 O           0.8554    3.0069    1.3838 O.2     1  UNL1       -0.2714
     12 CA          2.0637    2.2601   -0.5269 C.3     1  UNL1        0.1915
     13 C           3.1360    1.2352   -0.3215 C.ar    1  UNL1        0.0040
     14 C           4.4080    1.6516    0.0867 C.ar    1  UNL1        0.0009
     15 C           5.4244    0.7129    0.2883 C.ar    1  UNL1        0.0418
     16 C           5.1722   -0.6467    0.0824 C.ar    1  UNL1        0.1957
     17 C           3.9036   -1.0686   -0.3257 C.ar    1  UNL1        0.0418
     18 C           2.8870   -0.1309   -0.5277 C.ar    1  UNL1        0.0009
     19 O           6.1818   -1.5777    0.2831 O.3     1  UNL1       -0.2866
     20 N           1.5231    2.1781   -1.8745 N.3     1  UNL1       -0.1182
     21 S          -2.4197    1.6840   -0.9180 S.3     1  UNL1       -0.1141
     22 C          -2.3407    0.1007   -1.8462 C.3     1  UNL1        0.0826
     23 C          -4.1369   -2.3497    0.5349 C.2     1  UNL1        0.4006
     24 O          -4.7981   -3.1457   -0.1828 O.co2   1  UNL1       -0.2392
     25 OXT        -4.1364   -2.5284    1.9127 O.co2   1  UNL1       -0.2392
@<TRIPOS>BOND
     1     1     2    1
     2     2     3    2
     3     3     4    1
     4     4     5    1
     5     5     6    1
     6     6     7    1
     7     7     8    2
     8     6     9    1
     9     9    10   am
    10    10    11    2
    11    10    12    1
    12    12    13    1
    13    13    14   ar
    14    14    15   ar
    15    15    16   ar
    16    16    17   ar
    17    17    18   ar
    18    16    19    1
    19    12    20    1
    20     5    21    1
    21    21    22    1
    22     3    23    1
    23    23    24   ar
    24    23    25   ar
    25    22     2    1
    26     7     4   am
    27    18    13   ar
@<TRIPOS>MOLECULE
Cefapirin_Cephalosporins1_Active
 28 30 0 0 0
SMALL
GASTEIGER

@<TRIPOS>ATOM
      1 C          -7.4025    0.7195    1.6628 C.3     1  UNL1        0.1212
      2 C          -6.3802    0.1123    0.7718 C.2     1  UNL1        0.3179
      3 O          -5.9983   -1.0701    0.9806 O.2     1  UNL1       -0.2501
      4 O          -5.8617    0.8600   -0.2878 O.3     1  UNL1       -0.4438
      5 C          -4.8559    0.3599   -1.1629 C.3     1  UNL1        0.2331
      6 C          -3.5136    0.3865   -0.4977 C.2     1  UNL1        0.0301
      7 CA         -2.8176   -0.7394   -0.2100 C.2     1  UNL1        0.1314
      8 N          -1.5247   -0.5791    0.3799 N.am    1  UNL1       -0.2420
      9 C          -0.8303    0.5956    0.8367 C.3     1  UNL1        0.1570
     10 CA          0.4685   -0.0427    0.7828 C.3     1  UNL1        0.2002
     11 C          -0.2370   -1.3071    0.3971 C.2     1  UNL1        0.2526
     12 O           0.1280   -2.4837    0.1390 O.2     1  UNL1       -0.2726
     13 N           1.2834    0.4125   -0.3374 N.am    1  UNL1       -0.1944
     14 C           2.4641    1.1920   -0.1460 C.2     1  UNL1        0.2532
     15 O           2.8390    1.5142    1.0127 O.2     1  UNL1       -0.2724
     16 C           3.2679    1.6172   -1.3249 C.3     1  UNL1        0.1487
     17 S           4.1402    0.1920   -2.0474 S.3     1  UNL1       -0.1037
     18 C           5.4949    0.2862   -0.8820 C.ar    1  UNL1        0.0288
     19 C           5.4603   -0.4661    0.2946 C.ar    1  UNL1        0.0268
     20 C           6.5311   -0.3847    1.1874 C.ar    1  UNL1        0.0994
     21 N           7.5941    0.4166    0.9063 N.ar    1  UNL1       -0.2423
     22 C           7.6486    1.1524   -0.2369 C.ar    1  UNL1        0.0994
     23 C           6.5976    1.0987   -1.1551 C.ar    1  UNL1        0.0268
     24 S          -1.1841    1.9400   -0.3516 S.3     1  UNL1       -0.1140
     25 C          -2.9895    1.7472   -0.0926 C.3     1  UNL1        0.0862
     26 C          -3.2819   -2.1061   -0.5552 C.2     1  UNL1        0.4007
     27 O          -2.7189   -3.1050   -0.0359 O.co2   1  UNL1       -0.2392
     28 OXT        -4.3215   -2.3188   -1.4528 O.co2   1  UNL1       -0.2392
@<TRIPOS>BOND
     1     1     2    1
     2     2     3    2
     3     2     4    1
     4     4     5    1
     5     5     6    1
     6     6     7    2
     7     7     8    1
     8     8     9    1
     9     9    10    1
    10    10    11    1
    11    11    12    2
    12    10    13    1
    13    13    14   am
    14    14    15    2
    15    14    16    1
    16    16    17    1
    17    17    18    1
    18    18    19   ar
    19    19    20   ar
    20    20    21   ar
    21    21    22   ar
    22    22    23   ar
    23     9    24    1
    24    24    25    1
    25     7    26    1
    26    26    27   ar
    27    26    28   ar
    28    25     6    1
    29    11     8   am
    30    23    18   ar
@<TRIPOS>MOLECULE
Cefazedone_Cephalosporins1_Active
 33 36 0 0 0
SMALL
GASTEIGER

@<TRIPOS>ATOM
      1 C          -6.5677    0.9914    3.1522 C.3     1  UNL1        0.0614
      2 C          -6.2801    1.1472    1.7028 C.ar    1  UNL1        0.1120
      3 N          -7.0373    0.5979    0.7287 N.ar    1  UNL1       -0.1448
      4 N          -6.5878    0.8647   -0.4962 N.ar    1  UNL1       -0.1347
      5 C          -5.4710    1.6233   -0.4962 C.ar    1  UNL1        0.1594
      6 S          -4.9850    2.0142    1.0683 S.2     1  UNL1       -0.0435
      7 S          -4.6219    2.1370   -1.9845 S.3     1  UNL1       -0.0821
      8 C          -3.6463    0.6009   -2.0926 C.3     1  UNL1        0.0884
      9 C          -2.4977    0.6177   -1.1300 C.2     1  UNL1       -0.0020
     10 CA         -2.4189   -0.2321   -0.0764 C.2     1  UNL1        0.1287
     11 N          -1.2468   -0.1611    0.7388 N.am    1  UNL1       -0.2421
     12 C          -0.1260    0.7423    0.7095 C.3     1  UNL1        0.1570
     13 CA          0.7329   -0.1596    1.4464 C.3     1  UNL1        0.2002
     14 C          -0.4439   -1.0791    1.5769 C.2     1  UNL1        0.2526
     15 O          -0.6426   -2.1953    2.1239 O.2     1  UNL1       -0.2726
     16 N           1.7531   -0.7838    0.6111 N.am    1  UNL1       -0.1935
     17 C           2.7259   -1.6898    1.1330 C.2     1  UNL1        0.2649
     18 O           2.7503   -1.9681    2.3612 O.2     1  UNL1       -0.2712
     19 C           3.7345   -2.2979    0.2181 C.3     1  UNL1        0.1936
     20 N           4.6562   -1.2820   -0.2650 N.ar    1  UNL1       -0.3150
     21 C           5.7829   -1.0069    0.4478 C.ar    1  UNL1        0.0911
     22 C           6.6737   -0.0243    0.0107 C.ar    1  UNL1        0.1145
     23 C           6.3939    0.6774   -1.1694 C.ar    1  UNL1        0.2195
     24 O           7.1852    1.5676   -1.5818 O.2     1  UNL1       -0.2847
     25 C           5.2270    0.3825   -1.8872 C.ar    1  UNL1        0.1145
     26 C           4.3663   -0.6087   -1.4122 C.ar    1  UNL1        0.0911
     27 CL          4.8230    1.2329   -3.3686 Cl      1  UNL1       -0.0773
     28 CL          8.1194    0.3040    0.9507 Cl      1  UNL1       -0.0773
     29 S           0.2700    1.0698   -1.0457 S.3     1  UNL1       -0.1141
     30 C          -1.4343    1.6713   -1.3571 C.3     1  UNL1        0.0835
     31 C          -3.4388   -1.2660    0.2313 C.2     1  UNL1        0.4007
     32 O          -4.2978   -1.6187   -0.6192 O.co2   1  UNL1       -0.2392
     33 OXT        -3.4504   -1.8687    1.4823 O.co2   1  UNL1       -0.2392
@<TRIPOS>BOND
     1     1     2    1
     2     2     3   ar
     3     3     4   ar
     4     4     5   ar
     5     5     6   ar
     6     5     7    1
     7     7     8    1
     8     8     9    1
     9     9    10    2
    10    10    11    1
    11    11    12    1
    12    12    13    1
    13    13    14    1
    14    14    15    2
    15    13    16    1
    16    16    17   am
    17    17    18    2
    18    17    19    1
    19    19    20    1
    20    20    21   ar
    21    21    22   ar
    22    22    23   ar
    23    23    24    2
    24    23    25   ar
    25    25    26   ar
    26    25    27    1
    27    22    28    1
    28    12    29    1
    29    29    30    1
    30    10    31    1
    31    31    32   ar
    32    31    33   ar
    33     6     2   ar
    34    30     9    1
    35    14    11   am
    36    26    20   ar
@<TRIPOS>MOLECULE
Cefazaflur_Cephalosporins1_Active
 29 31 0 0 0
SMALL
GASTEIGER

@<TRIPOS>ATOM
      1 C          -0.3831    0.0963    2.0675 C.3     1  UNL1        0.1578
      2 N          -1.7779    0.4585    1.8941 N.ar    1  UNL1       -0.2064
      3 C          -2.8463   -0.3492    1.8643 C.ar    1  UNL1        0.2110
      4 N          -3.9730    0.3798    1.7728 N.ar    1  UNL1       -0.1015
      5 N          -3.5609    1.6418    1.7409 N.ar    1  UNL1       -0.0221
      6 N          -2.2382    1.6923    1.8186 N.ar    1  UNL1       -0.0425
      7 S          -2.7975   -2.1374    1.9698 S.3     1  UNL1       -0.0697
      8 C          -3.0205   -2.3750    0.1755 C.3     1  UNL1        0.0894
      9 C          -1.7640   -2.0948   -0.5920 C.2     1  UNL1       -0.0020
     10 CA         -1.7105   -1.1809   -1.5930 C.2     1  UNL1        0.1287
     11 N          -0.4533   -1.0065   -2.2544 N.am    1  UNL1       -0.2421
     12 C           0.7919   -1.7176   -2.1196 C.3     1  UNL1        0.1570
     13 CA          1.5646   -0.6538   -2.7227 C.3     1  UNL1        0.2002
     14 C           0.2698    0.0530   -2.9970 C.2     1  UNL1        0.2526
     15 O          -0.0531    1.1258   -3.5707 O.2     1  UNL1       -0.2726
     16 N           2.4267    0.0898   -1.7912 N.am    1  UNL1       -0.1944
     17 C           2.0359    0.9888   -0.7414 C.2     1  UNL1        0.2531
     18 O           0.8258    1.2698   -0.5365 O.2     1  UNL1       -0.2724
     19 C           3.0781    1.5713    0.1432 C.3     1  UNL1        0.1519
     20 S           3.3808    0.4563    1.5481 S.3     1  UNL1       -0.0316
     21 C           4.6169    1.5484    2.3185 C.3     1  UNL1        0.4442
     22 F           5.6811    1.7401    1.4567 F       1  UNL1       -0.1602
     23 F           5.0770    0.9596    3.4804 F       1  UNL1       -0.1602
     24 F           4.0433    2.7683    2.6264 F       1  UNL1       -0.1602
     25 S           1.0320   -2.1053   -0.3525 S.3     1  UNL1       -0.1141
     26 C          -0.5761   -2.9862   -0.2946 C.3     1  UNL1        0.0835
     27 C          -2.8578   -0.3261   -1.9962 C.2     1  UNL1        0.4007
     28 O          -2.7606    0.4088   -3.0132 O.co2   1  UNL1       -0.2392
     29 OXT        -4.0511   -0.3161   -1.2846 O.co2   1  UNL1       -0.2392
@<TRIPOS>BOND
     1     1     2    1
     2     2     3   ar
     3     3     4   ar
     4     4     5   ar
     5     5     6   ar
     6     3     7    1
     7     7     8    1
     8     8     9    1
     9     9    10    2
    10    10    11    1
    11    11    12    1
    12    12    13    1
    13    13    14    1
    14    14    15    2
    15    13    16    1
    16    16    17   am
    17    17    18    2
    18    17    19    1
    19    19    20    1
    20    20    21    1
    21    21    22    1
    22    21    23    1
    23    21    24    1
    24    12    25    1
    25    25    26    1
    26    10    27    1
    27    27    28   ar
    28    27    29   ar
    29     6     2   ar
    30    26     9    1
    31    14    11   am
@<TRIPOS>MOLECULE
Cefradine_Cephalosporins1_Active
 24 26 0 0 0
SMALL
GASTEIGER

@<TRIPOS>ATOM
      1 C          -4.7172   -0.2802    1.6749 C.3     1  UNL1        0.0288
      2 C          -3.7678   -0.2217    0.5253 C.2     1  UNL1       -0.0129
      3 CA         -2.9747    0.8483    0.2794 C.2     1  UNL1        0.1279
      4 N          -2.0578    0.7457   -0.8139 N.am    1  UNL1       -0.2421
      5 C          -1.8685   -0.2903   -1.7981 C.3     1  UNL1        0.1570
      6 CA         -0.5238    0.1396   -2.1151 C.3     1  UNL1        0.2002
      7 C          -0.7383    1.3034   -1.1938 C.2     1  UNL1        0.2526
      8 O          -0.0535    2.3009   -0.8469 O.2     1  UNL1       -0.2726
      9 N           0.5468   -0.7521   -1.6434 N.am    1  UNL1       -0.1936
     10 C           0.9246   -1.0494   -0.2900 C.2     1  UNL1        0.2632
     11 O           0.3068   -0.5417    0.6855 O.2     1  UNL1       -0.2714
     12 CA          2.0886   -1.9550   -0.0482 C.3     1  UNL1        0.1876
     13 C           3.3044   -1.1823    0.3623 C.2     1  UNL1       -0.0179
     14 C           4.3550   -1.1131   -0.4728 C.2     1  UNL1       -0.0277
     15 C           5.5714   -0.3080   -0.0873 C.3     1  UNL1        0.0511
     16 C           5.1583    0.9219    0.6830 C.2     1  UNL1       -0.0257
     17 C           4.1063    0.8657    1.5154 C.2     1  UNL1       -0.0259
     18 C           3.3446   -0.4272    1.6750 C.3     1  UNL1        0.0492
     19 N           1.7605   -2.9595    0.9506 N.3     1  UNL1       -0.1185
     20 S          -2.1182   -1.9071   -0.9839 S.3     1  UNL1       -0.1141
     21 C          -3.7870   -1.4071   -0.4115 C.3     1  UNL1        0.0826
     22 C          -2.9471    2.0670    1.1275 C.2     1  UNL1        0.4006
     23 O          -2.3424    3.0942    0.7233 O.co2   1  UNL1       -0.2392
     24 OXT        -3.5708    2.1080    2.3688 O.co2   1  UNL1       -0.2392
@<TRIPOS>BOND
     1     1     2    1
     2     2     3    2
     3     3     4    1
     4     4     5    1
     5     5     6    1
     6     6     7    1
     7     7     8    2
     8     6     9    1
     9     9    10   am
    10    10    11    2
    11    10    12    1
    12    12    13    1
    13    13    14    2
    14    14    15    1
    15    15    16    1
    16    16    17    2
    17    17    18    1
    18    12    19    1
    19     5    20    1
    20    20    21    1
    21     3    22    1
    22    22    23   ar
    23    22    24   ar
    24    21     2    1
    25     7     4   am
    26    18    13    1
@<TRIPOS>MOLECULE
Cefroxadine_Cephalosporins1_Active
 25 27 0 0 0
SMALL
GASTEIGER

@<TRIPOS>ATOM
      1 C          -5.2779    2.5361   -1.7469 C.3     1  UNL1        0.2521
      2 O          -4.6603    1.2585   -1.6876 O.2     1  UNL1       -0.4733
      3 C          -3.6795    0.9367   -0.7427 C.2     1  UNL1        0.1472
      4 CA         -3.1341   -0.2999   -0.7240 C.2     1  UNL1        0.1660
      5 N          -2.1049   -0.5605    0.2336 N.am    1  UNL1       -0.2395
      6 C          -1.5886    0.2417    1.3100 C.3     1  UNL1        0.1572
      7 CA         -0.3597   -0.5189    1.4059 C.3     1  UNL1        0.2002
      8 C          -0.9117   -1.4274    0.3503 C.2     1  UNL1        0.2527
      9 O          -0.4992   -2.4643   -0.2319 O.2     1  UNL1       -0.2726
     10 N           0.7949    0.1914    0.8695 N.am    1  UNL1       -0.1936
     11 C           1.8576    0.6543    1.7055 C.2     1  UNL1        0.2632
     12 O           1.8285    0.4474    2.9478 O.2     1  UNL1       -0.2714
     13 CA          3.0242    1.3738    1.1092 C.3     1  UNL1        0.1876
     14 C           3.9034    0.4518    0.3154 C.2     1  UNL1       -0.0179
     15 C           3.4775   -0.1092   -0.8343 C.2     1  UNL1       -0.0277
     16 C           4.3768   -1.0571   -1.5881 C.3     1  UNL1        0.0511
     17 C           5.1914   -1.8798   -0.6208 C.2     1  UNL1       -0.0257
     18 C           5.6146   -1.3318    0.5295 C.2     1  UNL1       -0.0259
     19 C           5.2732    0.1035    0.8481 C.3     1  UNL1        0.0492
     20 N           2.5764    2.4931    0.2953 N.3     1  UNL1       -0.1185
     21 S          -1.4926    1.9645    0.7089 S.3     1  UNL1       -0.1104
     22 C          -3.2803    1.9745    0.2936 C.3     1  UNL1        0.1243
     23 C          -3.5108   -1.3582   -1.6917 C.2     1  UNL1        0.4039
     24 O          -3.0763   -2.5296   -1.5395 O.co2   1  UNL1       -0.2390
     25 OXT        -4.3429   -1.0904   -2.7725 O.co2   1  UNL1       -0.2390
@<TRIPOS>BOND
     1     1     2    1
     2     2     3    1
     3     3     4    2
     4     4     5    1
     5     5     6    1
     6     6     7    1
     7     7     8    1
     8     8     9    2
     9     7    10    1
    10    10    11   am
    11    11    12    2
    12    11    13    1
    13    13    14    1
    14    14    15    2
    15    15    16    1
    16    16    17    1
    17    17    18    2
    18    18    19    1
    19    13    20    1
    20     6    21    1
    21    21    22    1
    22     4    23    1
    23    23    24   ar
    24    23    25   ar
    25    22     3    1
    26     8     5   am
    27    19    14    1
@<TRIPOS>MOLECULE
Ceftezole_Cephalosporins1_Active
 28 31 0 0 0
SMALL
GASTEIGER

@<TRIPOS>ATOM
      1 C           0.3290   -1.1809    1.3938 C.3     1  UNL1        0.0835
      2 C          -1.1180   -0.9423    1.7370 C.2     1  UNL1       -0.0020
      3 CA         -1.7703    0.0644    1.1277 C.2     1  UNL1        0.1287
      4 N          -1.1095    0.6689    0.0221 N.am    1  UNL1       -0.2421
      5 C          -0.2748    0.1025   -1.0085 C.3     1  UNL1        0.1570
      6 S           0.6061   -1.4100   -0.4077 S.3     1  UNL1       -0.1141
      7 CA          0.4860    1.3190   -1.1850 C.3     1  UNL1        0.2002
      8 C          -0.4457    1.9697   -0.2048 C.2     1  UNL1        0.2526
      9 O          -0.5663    3.1272    0.2756 O.2     1  UNL1       -0.2726
     10 N           1.8225    1.2375   -0.6060 N.am    1  UNL1       -0.1934
     11 C           2.7470    2.3242   -0.6594 C.2     1  UNL1        0.2668
     12 O           2.4479    3.3932   -1.2552 O.2     1  UNL1       -0.2711
     13 C           4.0913    2.1773   -0.0364 C.3     1  UNL1        0.2171
     14 N           4.9815    1.4617   -0.9345 N.ar    1  UNL1       -0.2013
     15 C           5.1604    0.1334   -1.0084 C.ar    1  UNL1        0.2219
     16 N           6.0337   -0.1210   -2.0040 N.ar    1  UNL1       -0.1048
     17 N           6.3603    1.0576   -2.5184 N.ar    1  UNL1       -0.0225
     18 N           5.7196    2.0191   -1.8747 N.ar    1  UNL1       -0.0424
     19 C          -3.1270    0.5309    1.4931 C.2     1  UNL1        0.4007
     20 O          -3.7101    1.3743    0.7623 O.co2   1  UNL1       -0.2392
     21 OXT        -3.7711    0.0751    2.6372 O.co2   1  UNL1       -0.2392
     22 C          -1.7462   -1.8078    2.7842 C.3     1  UNL1        0.0884
     23 S          -1.9411   -3.5170    2.1828 S.3     1  UNL1       -0.0821
     24 C          -3.3166   -3.1054    1.1151 C.ar    1  UNL1        0.1598
     25 N          -3.1846   -2.7542   -0.1791 N.ar    1  UNL1       -0.1343
     26 N          -4.3491   -2.4842   -0.7680 N.ar    1  UNL1       -0.1382
     27 C          -5.4272   -2.6166    0.0414 C.ar    1  UNL1        0.1597
     28 S          -4.9278   -3.0967    1.5796 S.2     1  UNL1       -0.0372
@<TRIPOS>BOND
     1     1     2    1
     2     2     3    2
     3     3     4    1
     4     4     5    1
     5     5     6    1
     6     5     7    1
     7     7     8    1
     8     8     9    2
     9     7    10    1
    10    10    11   am
    11    11    12    2
    12    11    13    1
    13    13    14    1
    14    14    15   ar
    15    15    16   ar
    16    16    17   ar
    17    17    18   ar
    18     3    19    1
    19    19    20   ar
    20    19    21   ar
    21     2    22    1
    22    22    23    1
    23    23    24    1
    24    24    25   ar
    25    25    26   ar
    26    26    27   ar
    27    27    28   ar
    28     6     1    1
    29     8     4   am
    30    18    14   ar
    31    28    24   ar
@<TRIPOS>MOLECULE
Cefaloglycin_Cephalosporins1_Active
 28 30 0 0 0
SMALL
GASTEIGER

@<TRIPOS>ATOM
      1 C           6.6128   -2.2161   -2.3024 C.3     1  UNL1        0.1212
      2 C           6.0509   -0.9627   -1.7358 C.2     1  UNL1        0.3179
      3 O           6.7612    0.0777   -1.7015 O.2     1  UNL1       -0.2501
      4 O           4.7445   -0.9550   -1.2486 O.3     1  UNL1       -0.4438
      5 C           4.1580    0.2149   -0.6972 C.3     1  UNL1        0.2331
      6 C           2.7706   -0.0897   -0.2382 C.2     1  UNL1        0.0301
      7 CA          2.4784   -0.5081    1.0073 C.2     1  UNL1        0.1314
      8 N           1.1356   -0.9163    1.2397 N.am    1  UNL1       -0.2420
      9 C           0.2017   -1.6254    0.4006 C.3     1  UNL1        0.1570
     10 CA         -0.9521   -0.9830    0.9882 C.3     1  UNL1        0.2002
     11 C          -0.0135   -0.3260    1.9575 C.2     1  UNL1        0.2526
     12 O          -0.1455    0.4591    2.9322 O.2     1  UNL1       -0.2726
     13 N          -1.5387    0.0283    0.1154 N.am    1  UNL1       -0.1936
     14 C          -2.6825    0.7955    0.4917 C.2     1  UNL1        0.2635
     15 O          -3.2526    0.5918    1.5984 O.2     1  UNL1       -0.2714
     16 CA         -3.2224    1.8133   -0.4617 C.3     1  UNL1        0.1915
     17 C          -4.3952    1.2847   -1.2268 C.ar    1  UNL1        0.0038
     18 C          -5.6078    0.9869   -0.5858 C.ar    1  UNL1       -0.0024
     19 C          -6.6873    0.4893   -1.3216 C.ar    1  UNL1       -0.0003
     20 C          -6.5601    0.2869   -2.6989 C.ar    1  UNL1       -0.0000
     21 C          -5.3537    0.5818   -3.3407 C.ar    1  UNL1       -0.0003
     22 C          -4.2735    1.0795   -2.6056 C.ar    1  UNL1       -0.0024
     23 N          -3.5710    3.0423    0.2342 N.3     1  UNL1       -0.1182
     24 S           0.5542   -1.3379   -1.3927 S.3     1  UNL1       -0.1140
     25 C           1.6488    0.1271   -1.2176 C.3     1  UNL1        0.0862
     26 C           3.4525   -0.6026    2.1183 C.2     1  UNL1        0.4007
     27 O           4.6355   -0.1880    1.9973 O.co2   1  UNL1       -0.2392
     28 OXT         3.0514   -1.1481    3.3315 O.co2   1  UNL1       -0.2392
@<TRIPOS>BOND
     1     1     2    1
     2     2     3    2
     3     2     4    1
     4     4     5    1
     5     5     6    1
     6     6     7    2
     7     7     8    1
     8     8     9    1
     9     9    10    1
    10    10    11    1
    11    11    12    2
    12    10    13    1
    13    13    14   am
    14    14    15    2
    15    14    16    1
    16    16    17    1
    17    17    18   ar
    18    18    19   ar
    19    19    20   ar
    20    20    21   ar
    21    21    22   ar
    22    16    23    1
    23     9    24    1
    24    24    25    1
    25     7    26    1
    26    26    27   ar
    27    26    28   ar
    28    25     6    1
    29    11     8   am
    30    22    17   ar
@<TRIPOS>MOLECULE
Cefacetrile_Cephalosporins1_Active
 23 24 0 0 0
SMALL
GASTEIGER

@<TRIPOS>ATOM
      1 C           5.9263    0.9620    0.0950 C.3     1  UNL1        0.1212
      2 C           4.6697    0.8452    0.8791 C.2     1  UNL1        0.3179
      3 O           4.1938    1.8651    1.4456 O.2     1  UNL1       -0.2501
      4 O           4.0397   -0.3964    0.9856 O.3     1  UNL1       -0.4438
      5 C           2.8056   -0.5728    1.6726 C.3     1  UNL1        0.2331
      6 C           1.6565   -0.1900    0.7920 C.2     1  UNL1        0.0301
      7 CA          1.1746   -1.0017   -0.1797 C.2     1  UNL1        0.1314
      8 N           0.0572   -0.5283   -0.9363 N.am    1  UNL1       -0.2420
      9 C          -0.6172    0.7429   -0.9371 C.3     1  UNL1        0.1570
     10 CA         -1.8192    0.2051   -1.5406 C.3     1  UNL1        0.2002
     11 C          -1.1064   -1.1095   -1.6409 C.2     1  UNL1        0.2526
     12 O          -1.4028   -2.2481   -2.0879 O.2     1  UNL1       -0.2726
     13 N          -2.9245    0.0804   -0.5976 N.am    1  UNL1       -0.1942
     14 C          -4.0664    0.9360   -0.6522 C.2     1  UNL1        0.2573
     15 O          -4.1573    1.8289   -1.5366 O.2     1  UNL1       -0.2722
     16 C          -5.1401    0.7966    0.3685 C.3     1  UNL1        0.1917
     17 C          -4.7685    1.5241    1.5848 C.1     1  UNL1        0.0831
     18 N          -4.4746    2.0983    2.5455 N.1     1  UNL1       -0.1954
     19 S          -0.7026    1.3221    0.7958 S.3     1  UNL1       -0.1140
     20 C           1.1204    1.2133    0.9650 C.3     1  UNL1        0.0862
     21 C           1.6815   -2.3728   -0.4345 C.2     1  UNL1        0.4007
     22 O           1.3772   -2.9606   -1.5051 O.co2   1  UNL1       -0.2392
     23 OXT         2.4771   -3.0397    0.4897 O.co2   1  UNL1       -0.2392
@<TRIPOS>BOND
     1     1     2    1
     2     2     3    2
     3     2     4    1
     4     4     5    1
     5     5     6    1
     6     6     7    2
     7     7     8    1
     8     8     9    1
     9     9    10    1
    10    10    11    1
    11    11    12    2
    12    10    13    1
    13    13    14   am
    14    14    15    2
    15    14    16    1
    16    16    17    1
    17    17    18    3
    18     9    19    1
    19    19    20    1
    20     7    21    1
    21    21    22   ar
    22    21    23   ar
    23    20     6    1
    24    11     8   am
@<TRIPOS>MOLECULE
Cefalonium_Cephalosporins1_Active
 31 34 0 0 0
SMALL
GASTEIGER

@<TRIPOS>ATOM
      1 C          -1.5076   -2.1509    1.5206 C.3     1  UNL1        0.0893
      2 C          -2.0428   -1.9894    0.1160 C.2     1  UNL1        0.0589
      3 CA         -1.2388   -2.1868   -0.9581 C.2     1  UNL1        0.0680
      4 N           0.1556   -2.3829   -0.7018 N.am    1  UNL1       -0.2465
      5 C           0.8793   -2.5296    0.5347 C.3     1  UNL1        0.1568
      6 S           0.1386   -1.3813    1.7514 S.3     1  UNL1       -0.1139
      7 CA          2.1483   -2.1680   -0.0609 C.3     1  UNL1        0.2002
      8 C           1.4405   -2.0974   -1.3792 C.2     1  UNL1        0.2525
      9 O           1.7924   -1.8402   -2.5599 O.2     1  UNL1       -0.2726
     10 N           2.5954   -0.8318    0.3137 N.am    1  UNL1       -0.1948
     11 C           3.7461   -0.6189    1.1314 C.2     1  UNL1        0.2468
     12 O           4.4238   -1.5941    1.5521 O.2     1  UNL1       -0.2729
     13 C           4.1669    0.7705    1.4636 C.3     1  UNL1        0.1196
     14 C           4.9087    1.3719    0.3202 C.ar    1  UNL1        0.0165
     15 C           6.2771    1.3037    0.1241 C.ar    1  UNL1        0.0032
     16 C           6.6797    1.9165   -1.0714 C.ar    1  UNL1        0.0072
     17 C           5.6369    2.4562   -1.8223 C.ar    1  UNL1        0.0351
     18 S           4.2097    2.1606   -0.9812 S.2     1  UNL1       -0.0903
     19 C          -1.7070   -2.1257   -2.3677 C.2     1  UNL1        0.0862
     20 O          -2.8853   -1.7917   -2.6600 O.co2   1  UNL1       -0.5433
     21 OXT        -0.8385   -2.4635   -3.3970 O.co2   1  UNL1       -0.5433
     22 C          -3.4859   -1.6028   -0.0062 C.3     1  UNL1        0.3480
     23 N          -3.6651   -0.1975    0.3259 N.ar    1  UNL1       -0.1557
     24 C          -4.0262    0.1479    1.5924 C.ar    1  UNL1        0.2905
     25 C          -4.1868    1.4911    1.9381 C.ar    1  UNL1        0.0805
     26 C          -3.9728    2.4831    0.9743 C.ar    1  UNL1        0.0689
     27 C          -3.6007    2.1050   -0.3212 C.ar    1  UNL1        0.0805
     28 C          -3.4503    0.7511   -0.6274 C.ar    1  UNL1        0.2905
     29 C          -4.1357    3.9063    1.3192 C.2     1  UNL1        0.2846
     30 O          -3.9396    4.7980    0.4510 O.2     1  UNL1       -0.2667
     31 N          -4.5160    4.2906    2.6375 N.am    1  UNL1       -0.0837
@<TRIPOS>UNITY_ATOM_ATTR
21 1
charge -1
23 1
charge 1
@<TRIPOS>BOND
     1     1     2    1
     2     2     3    2
     3     3     4    1
     4     4     5    1
     5     5     6    1
     6     5     7    1
     7     7     8    1
     8     8     9    2
     9     7    10    1
    10    10    11   am
    11    11    12    2
    12    11    13    1
    13    13    14    1
    14    14    15   ar
    15    15    16   ar
    16    16    17   ar
    17    17    18   ar
    18     3    19    1
    19    19    20   ar
    20    19    21   ar
    21     2    22    1
    22    22    23    1
    23    23    24   ar
    24    24    25   ar
    25    25    26   ar
    26    26    27   ar
    27    27    28   ar
    28    26    29    1
    29    29    30    2
    30    29    31   am
    31     6     1    1
    32     8     4   am
    33    18    14   ar
    34    28    23   ar
@<TRIPOS>MOLECULE
Cefaloridine_Cephalosporins1_Active
 28 31 0 0 0
SMALL
GASTEIGER

@<TRIPOS>ATOM
      1 C          -1.5184   -2.2484   -0.4888 C.3     1  UNL1        0.0893
      2 C          -2.1047   -1.2165   -1.4255 C.2     1  UNL1        0.0589
      3 CA         -1.3005   -0.4576   -2.2106 C.2     1  UNL1        0.0680
      4 N           0.1101   -0.5591   -1.9906 N.am    1  UNL1       -0.2465
      5 C           0.8749   -1.4332   -1.1379 C.3     1  UNL1        0.1568
      6 S          -0.0540   -1.6354    0.4254 S.3     1  UNL1       -0.1139
      7 CA          2.0318   -0.5647   -1.1354 C.3     1  UNL1        0.2002
      8 C           1.2969    0.3195   -2.0971 C.2     1  UNL1        0.2525
      9 O           1.5648    1.3941   -2.6952 O.2     1  UNL1       -0.2726
     10 N           2.2179    0.1345    0.1316 N.am    1  UNL1       -0.1948
     11 C           3.3064    1.0306    0.3606 C.2     1  UNL1        0.2468
     12 O           4.1728    1.2295   -0.5321 O.2     1  UNL1       -0.2729
     13 C           3.4359    1.7114    1.6789 C.3     1  UNL1        0.1196
     14 C           3.9734    0.7661    2.6973 C.ar    1  UNL1        0.0165
     15 C           3.2125   -0.0472    3.5192 C.ar    1  UNL1        0.0032
     16 C           3.9993   -0.8711    4.3371 C.ar    1  UNL1        0.0072
     17 C           5.3730   -0.7196    4.1564 C.ar    1  UNL1        0.0351
     18 S           5.5953    0.4499    2.9670 S.2     1  UNL1       -0.0903
     19 C          -1.8009    0.5202   -3.2120 C.2     1  UNL1        0.0862
     20 O          -3.0272    0.7829   -3.3253 O.co2   1  UNL1       -0.5433
     21 OXT        -0.9053    1.1530   -4.0637 O.co2   1  UNL1       -0.5433
     22 C          -3.5988   -1.0942   -1.4304 C.3     1  UNL1        0.3480
     23 N          -4.0576   -0.4138   -0.2287 N.ar    1  UNL1       -0.1557
     24 C          -4.4580   -1.1515    0.8441 C.ar    1  UNL1        0.2904
     25 C          -4.8882   -0.5197    2.0131 C.ar    1  UNL1        0.0758
     26 C          -4.9012    0.8746    2.0684 C.ar    1  UNL1        0.0126
     27 C          -4.4867    1.6174    0.9623 C.ar    1  UNL1        0.0758
     28 C          -4.0635    0.9482   -0.1882 C.ar    1  UNL1        0.2904
@<TRIPOS>UNITY_ATOM_ATTR
21 1
charge -1
23 1
charge 1
@<TRIPOS>BOND
     1     1     2    1
     2     2     3    2
     3     3     4    1
     4     4     5    1
     5     5     6    1
     6     5     7    1
     7     7     8    1
     8     8     9    2
     9     7    10    1
    10    10    11   am
    11    11    12    2
    12    11    13    1
    13    13    14    1
    14    14    15   ar
    15    15    16   ar
    16    16    17   ar
    17    17    18   ar
    18     3    19    1
    19    19    20   ar
    20    19    21   ar
    21     2    22    1
    22    22    23    1
    23    23    24   ar
    24    24    25   ar
    25    25    26   ar
    26    26    27   ar
    27    27    28   ar
    28     6     1    1
    29     8     4   am
    30    18    14   ar
    31    28    23   ar
@<TRIPOS>MOLECULE
Cefalotin_Cephalosporins1_Active
 26 28 0 0 0
SMALL
GASTEIGER

@<TRIPOS>ATOM
      1 C          -4.7913    4.0269    1.2913 C.3     1  UNL1        0.1212
      2 C          -3.6835    3.5540    0.4214 C.2     1  UNL1        0.3179
      3 O          -2.6281    4.2366    0.3332 O.2     1  UNL1       -0.2501
      4 O          -3.8327    2.3646   -0.2946 O.3     1  UNL1       -0.4438
      5 C          -2.7945    1.8219   -1.1032 C.3     1  UNL1        0.2331
      6 C          -1.8173    1.0618   -0.2607 C.2     1  UNL1        0.0301
      7 CA         -2.0558   -0.1944    0.1870 C.2     1  UNL1        0.1314
      8 N          -1.0303   -0.8211    0.9620 N.am    1  UNL1       -0.2420
      9 C           0.2179   -0.3157    1.4688 C.3     1  UNL1        0.1570
     10 CA          0.7859   -1.6375    1.6399 C.3     1  UNL1        0.2002
     11 C          -0.5383   -2.1937    1.2116 C.2     1  UNL1        0.2526
     12 O          -1.0102   -3.3518    1.0688 O.2     1  UNL1       -0.2726
     13 N           1.7880   -1.9603    0.6314 N.am    1  UNL1       -0.1948
     14 C           3.1862   -1.9553    0.9216 C.2     1  UNL1        0.2468
     15 O           3.5982   -1.7247    2.0896 O.2     1  UNL1       -0.2729
     16 C           4.1678   -2.1820   -0.1753 C.3     1  UNL1        0.1196
     17 C           4.2169   -0.9921   -1.0711 C.ar    1  UNL1        0.0165
     18 C           3.4859   -0.8346   -2.2358 C.ar    1  UNL1        0.0032
     19 C           3.6822    0.4211   -2.8284 C.ar    1  UNL1        0.0072
     20 C           4.5523    1.2574   -2.1313 C.ar    1  UNL1        0.0351
     21 S           5.0722    0.4159   -0.7700 S.2     1  UNL1       -0.0903
     22 S           0.9332    0.7758    0.1864 S.3     1  UNL1       -0.1140
     23 C          -0.5780    1.8142    0.1683 C.3     1  UNL1        0.0862
     24 C          -3.2700   -0.9749   -0.1573 C.2     1  UNL1        0.4007
     25 O          -3.5490   -2.0136    0.4966 O.co2   1  UNL1       -0.2392
     26 OXT        -4.1078   -0.5984   -1.2005 O.co2   1  UNL1       -0.2392
@<TRIPOS>BOND
     1     1     2    1
     2     2     3    2
     3     2     4    1
     4     4     5    1
     5     5     6    1
     6     6     7    2
     7     7     8    1
     8     8     9    1
     9     9    10    1
    10    10    11    1
    11    11    12    2
    12    10    13    1
    13    13    14   am
    14    14    15    2
    15    14    16    1
    16    16    17    1
    17    17    18   ar
    18    18    19   ar
    19    19    20   ar
    20    20    21   ar
    21     9    22    1
    22    22    23    1
    23     7    24    1
    24    24    25   ar
    25    24    26   ar
    26    23     6    1
    27    11     8   am
    28    21    17   ar
@<TRIPOS>MOLECULE
Cefatrizine_Cephalosporins1_Active
 31 34 0 0 0
SMALL
GASTEIGER

@<TRIPOS>ATOM
      1 C          -1.9451   -0.0585    0.0849 C.3     1  UNL1        0.0835
      2 C          -2.1802   -1.5281    0.3164 C.2     1  UNL1       -0.0020
      3 CA         -1.1325   -2.3124    0.6279 C.2     1  UNL1        0.1287
      4 N           0.0432   -1.6475    1.0703 N.am    1  UNL1       -0.2421
      5 C           0.2234   -0.4402    1.8334 C.3     1  UNL1        0.1570
      6 S          -1.0830    0.8099    1.4605 S.3     1  UNL1       -0.1141
      7 CA          1.5705   -0.2334    1.3508 C.3     1  UNL1        0.2002
      8 C           1.4586   -1.5578    0.6498 C.2     1  UNL1        0.2526
      9 O           2.2281   -2.2661   -0.0504 O.2     1  UNL1       -0.2726
     10 N           1.7207    0.8924    0.4172 N.am    1  UNL1       -0.1936
     11 C           1.2383    1.0114   -0.9325 C.2     1  UNL1        0.2635
     12 O           0.6590    0.0513   -1.5049 O.2     1  UNL1       -0.2714
     13 CA          1.4524    2.2813   -1.6905 C.3     1  UNL1        0.1915
     14 C           2.8764    2.4328   -2.1271 C.ar    1  UNL1        0.0040
     15 C           3.9081    2.6219   -1.1943 C.ar    1  UNL1        0.0009
     16 C           5.2304    2.7566   -1.6272 C.ar    1  UNL1        0.0418
     17 C           5.5276    2.7031   -2.9920 C.ar    1  UNL1        0.1957
     18 C           4.5029    2.5151   -3.9241 C.ar    1  UNL1        0.0418
     19 C           3.1801    2.3801   -3.4921 C.ar    1  UNL1        0.0009
     20 O           6.8406    2.8368   -3.4218 O.3     1  UNL1       -0.2866
     21 N           1.0289    3.4279   -0.9023 N.3     1  UNL1       -0.1182
     22 C          -1.1463   -3.7916    0.5803 C.2     1  UNL1        0.4007
     23 O          -0.1951   -4.4381    1.0926 O.co2   1  UNL1       -0.2392
     24 OXT        -2.1708   -4.4891   -0.0486 O.co2   1  UNL1       -0.2392
     25 C          -3.5486   -2.0557    0.0188 C.3     1  UNL1        0.0880
     26 S          -4.3906   -2.5814    1.5471 S.3     1  UNL1       -0.0870
     27 C          -4.8756   -0.9157    1.9823 C.ar    1  UNL1        0.1512
     28 N          -4.1696   -0.1051    2.7849 N.ar    1  UNL1       -0.1207
     29 N          -4.8603    1.0199    2.8636 N.ar    1  UNL1       -0.0415
     30 N          -5.9725    0.9491    2.1469 N.ar    1  UNL1       -0.1249
     31 C          -6.0190   -0.2687    1.5725 C.ar    1  UNL1        0.1511
@<TRIPOS>BOND
     1     1     2    1
     2     2     3    2
     3     3     4    1
     4     4     5    1
     5     5     6    1
     6     5     7    1
     7     7     8    1
     8     8     9    2
     9     7    10    1
    10    10    11   am
    11    11    12    2
    12    11    13    1
    13    13    14    1
    14    14    15   ar
    15    15    16   ar
    16    16    17   ar
    17    17    18   ar
    18    18    19   ar
    19    17    20    1
    20    13    21    1
    21     3    22    1
    22    22    23   ar
    23    22    24   ar
    24     2    25    1
    25    25    26    1
    26    26    27    1
    27    27    28   ar
    28    28    29   ar
    29    29    30   ar
    30    30    31   ar
    31     6     1    1
    32     8     4   am
    33    19    14   ar
    34    31    27   ar
@<TRIPOS>MOLECULE
Cefaclor_Cephalosporins2_Active
 24 26 0 0 0
SMALL
GASTEIGER

@<TRIPOS>ATOM
      1 C          -1.0250    1.6225   -2.3632 C.3     1  UNL1        0.0984
      2 C          -2.4629    1.2687   -2.0621 C.2     1  UNL1        0.0665
      3 CA         -2.9119    1.2141   -0.7856 C.2     1  UNL1        0.1425
      4 N          -1.9454    1.3661    0.2568 N.am    1  UNL1       -0.2412
      5 C          -0.5421    1.6819    0.2100 C.3     1  UNL1        0.1570
      6 S           0.1721    0.8133   -1.2341 S.3     1  UNL1       -0.1128
      7 CA         -0.2859    1.1425    1.5301 C.3     1  UNL1        0.2002
      8 C          -1.7588    0.8913    1.6455 C.2     1  UNL1        0.2526
      9 O          -2.5107    0.4160    2.5360 O.2     1  UNL1       -0.2726
     10 N           0.4158   -0.1350    1.4955 N.am    1  UNL1       -0.1936
     11 C           1.8113   -0.2420    1.7754 C.2     1  UNL1        0.2635
     12 O           2.4733    0.7759    2.1179 O.2     1  UNL1       -0.2714
     13 CA          2.4929   -1.5582    1.5728 C.3     1  UNL1        0.1915
     14 C           2.9587   -1.7104    0.1588 C.ar    1  UNL1        0.0038
     15 C           3.9676   -0.8881   -0.3666 C.ar    1  UNL1       -0.0024
     16 C           4.3706   -1.0345   -1.6971 C.ar    1  UNL1       -0.0003
     17 C           3.7670   -1.9999   -2.5079 C.ar    1  UNL1       -0.0000
     18 C           2.7602   -2.8192   -1.9887 C.ar    1  UNL1       -0.0003
     19 C           2.3564   -2.6737   -0.6581 C.ar    1  UNL1       -0.0024
     20 N           3.5998   -1.7258    2.5023 N.3     1  UNL1       -0.1182
     21 C          -4.3174    0.9248   -0.4136 C.2     1  UNL1        0.4018
     22 O          -5.1225    0.4021   -1.2281 O.co2   1  UNL1       -0.2391
     23 OXT        -4.7609    1.2176    0.8695 O.co2   1  UNL1       -0.2391
     24 CL         -3.5021    1.0498   -3.4659 Cl      1  UNL1       -0.0845
@<TRIPOS>BOND
     1     1     2    1
     2     2     3    2
     3     3     4    1
     4     4     5    1
     5     5     6    1
     6     5     7    1
     7     7     8    1
     8     8     9    2
     9     7    10    1
    10    10    11   am
    11    11    12    2
    12    11    13    1
    13    13    14    1
    14    14    15   ar
    15    15    16   ar
    16    16    17   ar
    17    17    18   ar
    18    18    19   ar
    19    13    20    1
    20     3    21    1
    21    21    22   ar
    22    21    23   ar
    23     2    24    1
    24     6     1    1
    25     8     4   am
    26    19    14   ar
@<TRIPOS>MOLECULE
Cefotetan_Cephalosporins2_Active
 36 39 0 0 0
SMALL
GASTEIGER

@<TRIPOS>ATOM
      1 C           6.8448   -1.8459   -0.0371 C.3     1  UNL1        0.1578
      2 N           6.8519   -0.9972   -1.2154 N.ar    1  UNL1       -0.2064
      3 C           5.8159   -0.6337   -1.9838 C.ar    1  UNL1        0.2110
      4 N           6.2383    0.1664   -2.9791 N.ar    1  UNL1       -0.1015
      5 N           7.5486    0.2784   -2.7939 N.ar    1  UNL1       -0.0221
      6 N           7.9211   -0.4218   -1.7311 N.ar    1  UNL1       -0.0425
      7 S           4.1150   -1.1327   -1.7365 S.3     1  UNL1       -0.0697
      8 C           3.7879    0.2816   -0.6444 C.3     1  UNL1        0.0894
      9 C           2.4353    0.1513   -0.0233 C.2     1  UNL1       -0.0019
     10 C           2.2493   -0.0077    1.3000 C.2     1  UNL1        0.1289
     11 N           0.9182   -0.2706    1.7236 N.am    1  UNL1       -0.2379
     12 C          -0.1442   -1.0286    1.1072 C.3     1  UNL1        0.1815
     13 C          -1.1824   -0.2887    1.7867 C.3     1  UNL1        0.2677
     14 C          -0.0949    0.4307    2.5432 C.2     1  UNL1        0.2771
     15 O          -0.0594    1.3033    3.4500 O.2     1  UNL1       -0.2700
     16 N          -2.0091    0.5614    0.9119 N.am    1  UNL1       -0.1697
     17 C          -1.6606    1.8226    0.3151 C.2     1  UNL1        0.2644
     18 O          -0.5624    2.3807    0.5739 O.2     1  UNL1       -0.2714
     19 C          -2.5974    2.4885   -0.6419 C.3     1  UNL1        0.1819
     20 S          -2.9412    1.4225   -2.0130 S.3     1  UNL1       -0.0873
     21 C          -4.5279    1.0789   -1.1565 C.2     1  UNL1        0.0638
     22 C          -5.4376    0.0935   -1.2286 C.2     1  UNL1        0.1476
     23 C          -5.3188   -0.9577   -2.2701 C.2     1  UNL1        0.2916
     24 O          -5.8935   -2.0682   -2.1195 O.2     1  UNL1       -0.2664
     25 N          -4.5666   -0.7332   -3.4590 N.am    1  UNL1       -0.0835
     26 C          -6.5681    0.0436   -0.2658 C.2     1  UNL1        0.3932
     27 O          -6.5857    0.7831    0.7536 O.co2   1  UNL1       -0.2403
     28 O          -7.6350   -0.8215   -0.4787 O.co2   1  UNL1       -0.2403
     29 S          -4.2543    2.4902   -0.0144 S.3     1  UNL1       -0.0873
     30 O          -1.9539   -1.1542    2.5903 O.3     1  UNL1       -0.3284
     31 C          -2.7823   -0.3762    3.4145 C.3     1  UNL1        0.1766
     32 S          -0.0479   -0.9609   -0.7363 S.3     1  UNL1       -0.1117
     33 C           1.2330    0.3467   -0.9106 C.3     1  UNL1        0.0835
     34 C           3.3271    0.0128    2.3157 C.2     1  UNL1        0.4007
     35 O           4.5159    0.2977    2.0133 O.co2   1  UNL1       -0.2392
     36 O           3.0211   -0.2765    3.6397 O.co2   1  UNL1       -0.2392
@<TRIPOS>BOND
     1     1     2    1
     2     2     3   ar
     3     3     4   ar
     4     4     5   ar
     5     5     6   ar
     6     3     7    1
     7     7     8    1
     8     8     9    1
     9     9    10    2
    10    10    11    1
    11    11    12    1
    12    12    13    1
    13    13    14    1
    14    14    15    2
    15    13    16    1
    16    16    17   am
    17    17    18    2
    18    17    19    1
    19    19    20    1
    20    20    21    1
    21    21    22    2
    22    22    23    1
    23    23    24    2
    24    23    25   am
    25    22    26    1
    26    26    27   ar
    27    26    28   ar
    28    21    29    1
    29    13    30    1
    30    30    31    1
    31    12    32    1
    32    32    33    1
    33    10    34    1
    34    34    35   ar
    35    34    36   ar
    36     6     2   ar
    37    33     9    1
    38    14    11   am
    39    29    19    1
@<TRIPOS>MOLECULE
Cefoxitin_Cephalosporins2_Active
 28 30 0 0 0
SMALL
GASTEIGER

@<TRIPOS>ATOM
      1 C          -2.7092   -0.2660    2.0070 C.3     1  UNL1        0.1766
      2 O          -1.9074    0.8558    1.7415 O.3     1  UNL1       -0.3284
      3 C          -1.0770    0.5583    0.6392 C.3     1  UNL1        0.2677
      4 C          -0.0002   -0.3638    0.9455 C.3     1  UNL1        0.1815
      5 N           1.0216    0.6200    0.6850 N.am    1  UNL1       -0.2379
      6 C          -0.0418    1.6212    0.4365 C.2     1  UNL1        0.2771
      7 O          -0.0658    2.8428    0.1336 O.2     1  UNL1       -0.2700
      8 C           2.4096    0.4721    0.3789 C.2     1  UNL1        0.1315
      9 C           2.8755   -0.7873    0.1915 C.2     1  UNL1        0.0302
     10 C           1.9791   -1.9869    0.4024 C.3     1  UNL1        0.0863
     11 S           0.2706   -1.7440   -0.2200 S.3     1  UNL1       -0.1116
     12 C           4.2970   -1.0871   -0.1775 C.3     1  UNL1        0.2349
     13 O           5.1739   -0.7749    0.9002 O.3     1  UNL1       -0.4277
     14 C           5.3151   -1.6003    2.0177 C.2     1  UNL1        0.4414
     15 O           4.6924   -2.6929    2.0979 O.2     1  UNL1       -0.2227
     16 N           6.1791   -1.2052    3.0759 N.am    1  UNL1       -0.0475
     17 C           3.2286    1.6939    0.1900 C.2     1  UNL1        0.4007
     18 O           4.3021    1.6718   -0.4682 O.co2   1  UNL1       -0.2392
     19 O           2.7980    2.8993    0.7292 O.co2   1  UNL1       -0.2392
     20 N          -1.8168    0.2790   -0.5965 N.am    1  UNL1       -0.1708
     21 C          -2.7897    1.1643   -1.1582 C.2     1  UNL1        0.2487
     22 O          -3.0546    2.2648   -0.6052 O.2     1  UNL1       -0.2729
     23 C          -3.5273    0.7614   -2.3872 C.3     1  UNL1        0.1197
     24 C          -4.6058   -0.2068   -2.0429 C.ar    1  UNL1        0.0165
     25 C          -4.4726   -1.5845   -2.0246 C.ar    1  UNL1        0.0032
     26 C          -5.6420   -2.2318   -1.6001 C.ar    1  UNL1        0.0072
     27 C          -6.6897   -1.3730   -1.2728 C.ar    1  UNL1        0.0351
     28 S          -6.1426    0.1996   -1.5170 S.2     1  UNL1       -0.0903
@<TRIPOS>BOND
     1     1     2    1
     2     2     3    1
     3     3     4    1
     4     4     5    1
     5     5     6   am
     6     6     7    2
     7     5     8    1
     8     8     9    2
     9     9    10    1
    10    10    11    1
    11     9    12    1
    12    12    13    1
    13    13    14    1
    14    14    15    2
    15    14    16   am
    16     8    17    1
    17    17    18   ar
    18    17    19   ar
    19     3    20    1
    20    20    21   am
    21    21    22    2
    22    21    23    1
    23    23    24    1
    24    24    25   ar
    25    25    26   ar
    26    26    27   ar
    27    27    28   ar
    28     6     3    1
    29     4    11    1
    30    28    24   ar
@<TRIPOS>MOLECULE
Cefprozil_Cephalosporins2_Active
 27 29 0 0 0
SMALL
GASTEIGER

@<TRIPOS>ATOM
      1 C          -8.1663    0.3756   -0.1571 C.3     1  UNL1        0.0307
      2 C          -6.7313    0.7264   -0.3164 C.2     1  UNL1       -0.0260
      3 C          -5.7931   -0.1495    0.0224 C.2     1  UNL1       -0.0065
      4 C          -4.3497    0.1296   -0.1083 C.2     1  UNL1        0.0087
      5 CA         -3.4160   -0.7758    0.2773 C.2     1  UNL1        0.1319
      6 N          -2.0428   -0.4109    0.1254 N.am    1  UNL1       -0.2419
      7 C          -1.4297    0.8397   -0.2346 C.3     1  UNL1        0.1570
      8 CA         -0.2160    0.2219   -0.6814 C.3     1  UNL1        0.2002
      9 C          -0.7823   -1.0903   -0.2362 C.2     1  UNL1        0.2526
     10 O          -0.3727   -2.2804   -0.2273 O.2     1  UNL1       -0.2726
     11 N           0.8761    0.6017    0.2005 N.am    1  UNL1       -0.1936
     12 C           1.9295    1.4638   -0.2290 C.2     1  UNL1        0.2635
     13 O           1.9438    1.9172   -1.4063 O.2     1  UNL1       -0.2714
     14 CA          3.0362    1.7929    0.7215 C.3     1  UNL1        0.1915
     15 C           4.2602    0.9757    0.4483 C.ar    1  UNL1        0.0040
     16 C           4.9954    1.1399   -0.7361 C.ar    1  UNL1        0.0009
     17 C           6.1326    0.3614   -0.9703 C.ar    1  UNL1        0.0418
     18 C           6.5396   -0.5834   -0.0239 C.ar    1  UNL1        0.1957
     19 C           5.8098   -0.7501    1.1567 C.ar    1  UNL1        0.0418
     20 C           4.6722    0.0281    1.3918 C.ar    1  UNL1        0.0009
     21 O           7.6687   -1.3564   -0.2565 O.3     1  UNL1       -0.2866
     22 N           3.3451    3.2139    0.6844 N.3     1  UNL1       -0.1182
     23 S          -2.4037    1.5315   -1.5994 S.3     1  UNL1       -0.1138
     24 C          -3.9304    1.5141   -0.5786 C.3     1  UNL1        0.0868
     25 C          -3.7356   -2.1384    0.7744 C.2     1  UNL1        0.4009
     26 O          -2.8402   -2.8199    1.3389 O.co2   1  UNL1       -0.2392
     27 OXT        -4.9994   -2.6963    0.6198 O.co2   1  UNL1       -0.2392
@<TRIPOS>BOND
     1     1     2    1
     2     2     3    2
     3     3     4    1
     4     4     5    2
     5     5     6    1
     6     6     7    1
     7     7     8    1
     8     8     9    1
     9     9    10    2
    10     8    11    1
    11    11    12   am
    12    12    13    2
    13    12    14    1
    14    14    15    1
    15    15    16   ar
    16    16    17   ar
    17    17    18   ar
    18    18    19   ar
    19    19    20   ar
    20    18    21    1
    21    14    22    1
    22     7    23    1
    23    23    24    1
    24     5    25    1
    25    25    26   ar
    26    25    27   ar
    27    24     4    1
    28     9     6   am
    29    20    15   ar
@<TRIPOS>MOLECULE
Cefuroxime_Cephalosporins2_Active
 29 31 0 0 0
SMALL
GASTEIGER

@<TRIPOS>ATOM
      1 C          -0.7892    3.1162    0.7986 C.3     1  UNL1        0.2885
      2 O          -1.3520    1.8362    0.5795 O.2     1  UNL1       -0.3729
      3 N          -2.7118    1.6995    0.4150 N.2     1  UNL1       -0.0750
      4 C          -3.2954    0.5554    0.2032 C.2     1  UNL1        0.2083
      5 C          -4.7588    0.5445    0.0018 C.ar    1  UNL1        0.1707
      6 C          -5.5701    1.6615   -0.0268 C.ar    1  UNL1        0.0426
      7 C          -6.8475    1.1717   -0.2327 C.ar    1  UNL1        0.0438
      8 C          -6.7331   -0.2049   -0.3148 C.ar    1  UNL1        0.1797
      9 O          -5.4739   -0.5392   -0.1696 O.2     1  UNL1       -0.4486
     10 C          -2.5282   -0.7153    0.1459 C.2     1  UNL1        0.2893
     11 O          -3.0245   -1.7245   -0.4246 O.2     1  UNL1       -0.2665
     12 N          -1.2320   -0.8113    0.7431 N.am    1  UNL1       -0.1899
     13 CA         -0.3996   -2.0037    0.6284 C.3     1  UNL1        0.2005
     14 C           0.5065   -1.9648   -0.5015 C.3     1  UNL1        0.1570
     15 N           1.6654   -1.7427    0.3253 N.am    1  UNL1       -0.2420
     16 C           0.7959   -1.8588    1.5179 C.2     1  UNL1        0.2526
     17 O           0.9722   -1.8023    2.7628 O.2     1  UNL1       -0.2726
     18 CA          2.9571   -1.2088    0.0144 C.2     1  UNL1        0.1314
     19 C           3.1339   -0.7050   -1.2311 C.2     1  UNL1        0.0302
     20 C           2.0707   -0.8791   -2.2915 C.3     1  UNL1        0.0862
     21 S           0.3798   -0.5577   -1.6648 S.3     1  UNL1       -0.1140
     22 C           4.3770    0.0199   -1.6468 C.3     1  UNL1        0.2349
     23 O           4.0702    1.3483   -2.0587 O.3     1  UNL1       -0.4277
     24 C           3.7230    2.3576   -1.1572 C.2     1  UNL1        0.4414
     25 O           3.6935    2.1363    0.0829 O.2     1  UNL1       -0.2227
     26 N           3.4007    3.6532   -1.6466 N.am    1  UNL1       -0.0475
     27 C           3.9891   -1.1535    1.0831 C.2     1  UNL1        0.4007
     28 O           3.7660   -1.6999    2.1946 O.co2   1  UNL1       -0.2392
     29 OXT         5.2150   -0.5287    0.8873 O.co2   1  UNL1       -0.2392
@<TRIPOS>BOND
     1     1     2    1
     2     2     3    1
     3     3     4    2
     4     4     5    1
     5     5     6   ar
     6     6     7   ar
     7     7     8   ar
     8     8     9   ar
     9     4    10    1
    10    10    11    2
    11    10    12   am
    12    13    12    1
    13    13    14    1
    14    14    15    1
    15    15    16   am
    16    16    17    2
    17    15    18    1
    18    18    19    2
    19    19    20    1
    20    20    21    1
    21    19    22    1
    22    22    23    1
    23    23    24    1
    24    24    25    2
    25    24    26   am
    26    18    27    1
    27    27    28   ar
    28    27    29   ar
    29     9     5   ar
    30    16    13    1
    31    14    21    1
@<TRIPOS>MOLECULE
CefuroximeAxetil_Cephalosporins2_Active
 35 37 0 0 0
SMALL
GASTEIGER

@<TRIPOS>ATOM
      1 C          -3.9155    3.6682    0.3412 C.3     1  UNL1        0.0997
      2 C          -4.2192    2.2132    0.0507 C.3     1  UNL1        0.3449
      3 O          -5.1316    2.1179   -1.0330 O.3     1  UNL1       -0.4135
      4 C          -6.3066    1.3718   -0.9410 C.2     1  UNL1        0.3201
      5 O          -6.5968    0.7482    0.1151 O.2     1  UNL1       -0.2500
      6 C          -7.2270    1.3098   -2.1057 C.3     1  UNL1        0.1213
      7 O          -3.0200    1.5263   -0.2736 O.3     1  UNL1       -0.4095
      8 C          -2.6352    0.3593    0.3895 C.2     1  UNL1        0.3572
      9 O          -3.3558   -0.1068    1.3145 O.2     1  UNL1       -0.2434
     10 C          -1.3653   -0.2945    0.0015 C.2     1  UNL1        0.1273
     11 C          -0.9580   -1.5027    0.4354 C.2     1  UNL1        0.0301
     12 C           0.4509   -1.9406    0.1464 C.3     1  UNL1        0.0862
     13 S           0.8592   -1.8733   -1.6416 S.3     1  UNL1       -0.1140
     14 C           0.3516   -0.1230   -1.9586 C.3     1  UNL1        0.1570
     15 N          -0.5063    0.3785   -0.9125 N.am    1  UNL1       -0.2421
     16 C           0.3935    1.5447   -0.7889 C.2     1  UNL1        0.2526
     17 O           0.4036    2.5897   -0.0875 O.2     1  UNL1       -0.2726
     18 C           1.3329    0.9223   -1.7797 C.3     1  UNL1        0.2005
     19 N           2.5291    0.4567   -1.0863 N.am    1  UNL1       -0.1899
     20 C           3.6333    1.3149   -0.7876 C.2     1  UNL1        0.2893
     21 O           3.6048    2.5154   -1.1727 O.2     1  UNL1       -0.2665
     22 C           4.8022    0.7955   -0.0257 C.2     1  UNL1        0.2083
     23 N           5.6392    1.5988    0.5635 N.2     1  UNL1       -0.0750
     24 O           5.5111    2.9694    0.5477 O.2     1  UNL1       -0.3729
     25 C           6.4639    3.7771    1.2135 C.3     1  UNL1        0.2885
     26 C           5.0530   -0.6562    0.1001 C.ar    1  UNL1        0.1707
     27 C           4.3791   -1.6711   -0.5502 C.ar    1  UNL1        0.0426
     28 C           4.9784   -2.8400   -0.1175 C.ar    1  UNL1        0.0438
     29 C           5.9775   -2.4656    0.7627 C.ar    1  UNL1        0.1797
     30 O           5.9910   -1.1586    0.8642 O.2     1  UNL1       -0.4486
     31 C          -1.7991   -2.4059    1.2774 C.3     1  UNL1        0.2349
     32 O          -2.8571   -2.9440    0.4966 O.3     1  UNL1       -0.4277
     33 C          -3.8200   -3.7897    1.0457 C.2     1  UNL1        0.4414
     34 O          -3.7816   -4.1071    2.2648 O.2     1  UNL1       -0.2227
     35 N          -4.8594   -4.2987    0.2193 N.am    1  UNL1       -0.0475
@<TRIPOS>BOND
     1     1     2    1
     2     2     3    1
     3     3     4    1
     4     4     5    2
     5     4     6    1
     6     2     7    1
     7     7     8    1
     8     8     9    2
     9     8    10    1
    10    10    11    2
    11    11    12    1
    12    12    13    1
    13    14    13    1
    14    14    15    1
    15    15    16   am
    16    16    17    2
    17    16    18    1
    18    18    19    1
    19    19    20   am
    20    20    21    2
    21    20    22    1
    22    22    23    2
    23    23    24    1
    24    24    25    1
    25    22    26    1
    26    26    27   ar
    27    27    28   ar
    28    28    29   ar
    29    29    30   ar
    30    11    31    1
    31    31    32    1
    32    32    33    1
    33    33    34    2
    34    33    35   am
    35    15    10    1
    36    18    14    1
    37    30    26   ar
@<TRIPOS>MOLECULE
Cefamandole_Cephalosporins2_Active
 31 34 0 0 0
SMALL
GASTEIGER

@<TRIPOS>ATOM
      1 C          -6.0736    0.3861    1.2021 C.3     1  UNL1        0.1578
      2 N          -5.4737    0.2281    2.5150 N.ar    1  UNL1       -0.2064
      3 C          -4.4352   -0.5423    2.8671 C.ar    1  UNL1        0.2110
      4 N          -4.1861   -0.4077    4.1820 N.ar    1  UNL1       -0.1015
      5 N          -5.0939    0.4599    4.6142 N.ar    1  UNL1       -0.0221
      6 N          -5.8717    0.8445    3.6113 N.ar    1  UNL1       -0.0425
      7 S          -3.5076   -1.6021    1.7623 S.3     1  UNL1       -0.0697
      8 C          -2.3360   -0.2723    1.3590 C.3     1  UNL1        0.0894
      9 C          -1.4457   -0.6834    0.2304 C.2     1  UNL1       -0.0020
     10 CA         -1.5166   -0.1147   -0.9973 C.2     1  UNL1        0.1287
     11 N          -0.5440   -0.5194   -1.9651 N.am    1  UNL1       -0.2421
     12 C           0.4967   -1.5148   -1.9051 C.3     1  UNL1        0.1570
     13 CA          1.2536   -0.9095   -2.9799 C.3     1  UNL1        0.2003
     14 C           0.1245    0.0619   -3.1531 C.2     1  UNL1        0.2526
     15 O          -0.1187    1.0113   -3.9430 O.2     1  UNL1       -0.2726
     16 N           2.5004   -0.2479   -2.5664 N.am    1  UNL1       -0.1927
     17 C           2.6591    0.9199   -1.7416 C.2     1  UNL1        0.2767
     18 O           1.6597    1.5543   -1.3113 O.2     1  UNL1       -0.2702
     19 C           4.0270    1.3657   -1.3407 C.3     1  UNL1        0.2513
     20 C           4.5916    0.4874   -0.2685 C.ar    1  UNL1        0.0166
     21 C           4.7461    0.9992    1.0246 C.ar    1  UNL1       -0.0013
     22 C           5.2585    0.1909    2.0440 C.ar    1  UNL1       -0.0002
     23 C           5.6174   -1.1330    1.7736 C.ar    1  UNL1       -0.0000
     24 C           5.4647   -1.6495    0.4836 C.ar    1  UNL1       -0.0002
     25 C           4.9527   -0.8422   -0.5361 C.ar    1  UNL1       -0.0013
     26 O           4.8776    1.4022   -2.4476 O.3     1  UNL1       -0.2083
     27 S           1.1937   -1.5132   -0.2152 S.3     1  UNL1       -0.1141
     28 C          -0.4644   -1.8010    0.5113 C.3     1  UNL1        0.0835
     29 C          -2.4855    0.9516   -1.3579 C.2     1  UNL1        0.4007
     30 O          -2.6481    1.2625   -2.5666 O.co2   1  UNL1       -0.2392
     31 OXT        -3.2225    1.6276   -0.3927 O.co2   1  UNL1       -0.2392
@<TRIPOS>BOND
     1     1     2    1
     2     2     3   ar
     3     3     4   ar
     4     4     5   ar
     5     5     6   ar
     6     3     7    1
     7     7     8    1
     8     8     9    1
     9     9    10    2
    10    10    11    1
    11    11    12    1
    12    12    13    1
    13    13    14    1
    14    14    15    2
    15    13    16    1
    16    16    17   am
    17    17    18    2
    18    17    19    1
    19    19    20    1
    20    20    21   ar
    21    21    22   ar
    22    22    23   ar
    23    23    24   ar
    24    24    25   ar
    25    19    26    1
    26    12    27    1
    27    27    28    1
    28    10    29    1
    29    29    30   ar
    30    29    31   ar
    31     6     2   ar
    32    28     9    1
    33    14    11   am
    34    25    20   ar
@<TRIPOS>MOLECULE
Cefminox_Cephalosporins2_Active
 33 35 0 0 0
SMALL
GASTEIGER

@<TRIPOS>ATOM
      1 C1         -4.7235   -0.8346    3.4638 C.3     1  <1>         0.1578
      2 N1         -5.6336   -0.7741    2.3340 N.ar    1  <1>        -0.2064
      3 C2         -5.3724   -1.0193    1.0426 C.ar    1  <1>         0.2110
      4 N2         -6.4860   -0.8517    0.3070 N.ar    1  <1>        -0.1015
      5 N3         -7.4221   -0.4996    1.1806 N.ar    1  <1>        -0.0221
      6 N4         -6.9110   -0.4519    2.4033 N.ar    1  <1>        -0.0425
      7 S1         -3.7822   -1.5018    0.3779 S.3     1  <1>        -0.0697
      8 C3         -3.2927    0.2272    0.1085 C.3     1  <1>         0.0894
      9 C4         -1.9468    0.2887   -0.5376 C.2     1  <1>        -0.0019
     10 C5         -1.7466    0.7788   -1.7750 C.2     1  <1>         0.1289
     11 N5         -0.4278    0.6624   -2.2961 N.am    1  <1>        -0.2379
     12 C6          0.5544   -0.3909   -2.1699 C.3     1  <1>         0.1815
     13 C7          1.6709    0.5215   -2.2871 C.3     1  <1>         0.2677
     14 C8          0.6742    1.6222   -2.5229 C.2     1  <1>         0.2771
     15 O1          0.7439    2.8582   -2.7507 O.2     1  <1>        -0.2700
     16 N6          2.4394    0.7267   -1.0534 N.am    1  <1>        -0.1704
     17 C9          3.4324   -0.1824   -0.5681 C.2     1  <1>         0.2547
     18 O2          3.7098   -1.2333   -1.2048 O.2     1  <1>        -0.2723
     19 C10         4.1157    0.0971    0.7213 C.3     1  <1>         0.1443
     20 S2          3.0335   -0.3743    2.1010 S.3     1  <1>        -0.1284
     21 C11         4.3283   -0.0230    3.3362 C.3     1  <1>         0.0886
     22 C12         4.9730   -1.2962    3.8799 C.3     1  <1>         0.2050
     23 C13         5.7278   -2.0392    2.8170 C.2     1  <1>         0.3828
     24 O3          5.3910   -3.2051    2.4780 O.co2   1  <1>        -0.2440
     25 O4          6.8169   -1.4362    2.2012 O.co2   1  <1>        -0.2440
     26 N7          3.9752   -2.1407    4.5203 N.3     1  <1>        -0.1199
     27 O5          2.4672    0.2222   -3.4151 O.3     1  <1>        -0.3284
     28 C14         3.3530    1.2889   -3.6376 C.3     1  <1>         0.1766
     29 S3          0.3289   -1.3206   -0.5865 S.3     1  <1>        -0.1117
     30 C15        -0.7498   -0.1155    0.2816 C.3     1  <1>         0.0835
     31 C16        -2.7951    1.3866   -2.6258 C.2     1  <1>         0.4007
     32 O6         -3.9674    1.5677   -2.2034 O.co2   1  <1>        -0.2392
     33 O7         -2.4787    1.7792   -3.9202 O.co2   1  <1>        -0.2392
@<TRIPOS>BOND
     1     1     2    1
     2     2     3   ar
     3     3     4   ar
     4     4     5   ar
     5     5     6   ar
     6     3     7    1
     7     7     8    1
     8     8     9    1
     9     9    10    2
    10    10    11    1
    11    11    12    1
    12    12    13    1
    13    13    14    1
    14    14    15    2
    15    13    16    1
    16    16    17   am
    17    17    18    2
    18    17    19    1
    19    19    20    1
    20    20    21    1
    21    21    22    1
    22    22    23    1
    23    23    24   ar
    24    23    25   ar
    25    22    26    1
    26    13    27    1
    27    27    28    1
    28    12    29    1
    29    29    30    1
    30    10    31    1
    31    31    32   ar
    32    31    33   ar
    33     6     2   ar
    34    30     9    1
    35    14    11   am
@<TRIPOS>MOLECULE
Cefonicid_Cephalosporins2_Active
 35 38 0 0 0
SMALL
GASTEIGER

@<TRIPOS>ATOM
      1 C          -0.8378   -2.3348   -2.3245 C.3     1  UNL1        0.0835
      2 C          -1.5732   -2.7716   -1.0713 C.2     1  UNL1       -0.0020
      3 CA         -1.1522   -2.3860    0.1570 C.2     1  UNL1        0.1287
      4 N           0.0427   -1.6086    0.2229 N.am    1  UNL1       -0.2421
      5 C           0.8325   -1.0066   -0.8175 C.3     1  UNL1        0.1570
      6 S           0.9879   -2.2429   -2.1359 S.3     1  UNL1       -0.1141
      7 CA          2.0031   -0.9078    0.0012 C.3     1  UNL1        0.2003
      8 C           1.1960   -1.4647    1.1336 C.2     1  UNL1        0.2526
      9 O           1.4235   -1.7408    2.3402 O.2     1  UNL1       -0.2726
     10 N           2.2956    0.4954    0.2494 N.am    1  UNL1       -0.1927
     11 C           3.3992    0.9211    1.0524 C.2     1  UNL1        0.2767
     12 O           4.1820    0.0757    1.5627 O.2     1  UNL1       -0.2702
     13 C           3.6487    2.3779    1.2712 C.3     1  UNL1        0.2513
     14 C           4.1982    3.0331    0.0438 C.ar    1  UNL1        0.0166
     15 C           3.4133    3.1903   -1.1085 C.ar    1  UNL1       -0.0013
     16 C           3.9512    3.7987   -2.2464 C.ar    1  UNL1       -0.0002
     17 C           5.2727    4.2537   -2.2376 C.ar    1  UNL1       -0.0000
     18 C           6.0569    4.1003   -1.0908 C.ar    1  UNL1       -0.0002
     19 C           5.5201    3.4910    0.0475 C.ar    1  UNL1       -0.0013
     20 O           2.4807    3.0185    1.6896 O.3     1  UNL1       -0.2083
     21 C          -1.8234   -2.7742    1.4221 C.2     1  UNL1        0.4007
     22 O          -1.5184   -2.1889    2.4936 O.co2   1  UNL1       -0.2392
     23 OXT        -2.7778   -3.7841    1.4618 O.co2   1  UNL1       -0.2392
     24 C          -2.8375   -3.5472   -1.2745 C.3     1  UNL1        0.0894
     25 S          -4.1123   -2.5265   -2.0850 S.3     1  UNL1       -0.0696
     26 C          -4.4837   -1.5805   -0.6068 C.ar    1  UNL1        0.2125
     27 N          -5.3951   -1.9413    0.3138 N.ar    1  UNL1       -0.1014
     28 N          -5.4215   -0.9362    1.1803 N.ar    1  UNL1       -0.0221
     29 N          -4.5704    0.0087    0.8079 N.ar    1  UNL1       -0.0409
     30 N          -3.9611   -0.3838   -0.2967 N.ar    1  UNL1       -0.1859
     31 C          -3.0507    0.4204   -1.1047 C.3     1  UNL1        0.2554
     32 S          -2.0691    1.5200   -0.0958 S.3     1  UNL1       -0.0830
     33 O          -0.8696    1.9715   -0.8792 O.2     1  UNL1       -0.3695
     34 O          -2.8946    2.7163    0.2851 O.2     1  UNL1       -0.3695
     35 O          -1.5561    0.7337    1.2969 O.3     1  UNL1       -0.2892
@<TRIPOS>BOND
     1     1     2    1
     2     2     3    2
     3     3     4    1
     4     4     5    1
     5     5     6    1
     6     5     7    1
     7     7     8    1
     8     8     9    2
     9     7    10    1
    10    10    11   am
    11    11    12    2
    12    11    13    1
    13    13    14    1
    14    14    15   ar
    15    15    16   ar
    16    16    17   ar
    17    17    18   ar
    18    18    19   ar
    19    13    20    1
    20     3    21    1
    21    21    22   ar
    22    21    23   ar
    23     2    24    1
    24    24    25    1
    25    25    26    1
    26    26    27   ar
    27    27    28   ar
    28    28    29   ar
    29    29    30   ar
    30    30    31    1
    31    31    32    1
    32    32    33    2
    33    32    34    2
    34    32    35    1
    35     6     1    1
    36     8     4   am
    37    19    14   ar
    38    30    26   ar
@<TRIPOS>MOLECULE
Ceforanide_Cephalosporins2_Active
 35 38 0 0 0
SMALL
GASTEIGER

@<TRIPOS>ATOM
      1 C          -0.2650    2.3652   -1.4915 C.3     1  UNL1        0.0835
      2 C           1.1498    1.8806   -1.2810 C.2     1  UNL1       -0.0020
      3 CA          1.5829    0.7403   -1.8705 C.2     1  UNL1        0.1287
      4 N           0.5968   -0.0794   -2.5099 N.am    1  UNL1       -0.2421
      5 C          -0.8071    0.1401   -2.7456 C.3     1  UNL1        0.1570
      6 S          -1.4962    1.0252   -1.2986 S.3     1  UNL1       -0.1141
      7 CA         -1.0963   -1.2721   -2.8870 C.3     1  UNL1        0.2002
      8 C           0.3786   -1.5178   -2.7851 C.2     1  UNL1        0.2526
      9 O           1.1109   -2.5394   -2.8463 O.2     1  UNL1       -0.2726
     10 N          -1.7456   -1.8374   -1.7103 N.am    1  UNL1       -0.1948
     11 C          -3.1583   -2.0324   -1.6313 C.2     1  UNL1        0.2463
     12 O          -3.8915   -1.8215   -2.6335 O.2     1  UNL1       -0.2730
     13 C          -3.7739   -2.4684   -0.3442 C.3     1  UNL1        0.1128
     14 C          -3.4988   -1.4660    0.7341 C.ar    1  UNL1       -0.0156
     15 C          -2.3651   -1.6383    1.5381 C.ar    1  UNL1       -0.0041
     16 C          -2.0514   -0.7033    2.5276 C.ar    1  UNL1       -0.0003
     17 C          -2.8665    0.4145    2.7158 C.ar    1  UNL1       -0.0003
     18 C          -3.9979    0.5966    1.9166 C.ar    1  UNL1       -0.0031
     19 C          -4.3235   -0.3386    0.9270 C.ar    1  UNL1       -0.0067
     20 C          -5.5306   -0.0993    0.0804 C.3     1  UNL1        0.1353
     21 N          -5.1973    0.7962   -1.0136 N.3     1  UNL1       -0.1262
     22 C           2.9837    0.2537   -1.7717 C.2     1  UNL1        0.4007
     23 O           3.2702   -0.9175   -2.1302 O.co2   1  UNL1       -0.2392
     24 OXT         4.0088    1.0796   -1.3253 O.co2   1  UNL1       -0.2392
     25 C           2.0034    2.6767   -0.3426 C.3     1  UNL1        0.0894
     26 S           1.3970    2.5391    1.3732 S.3     1  UNL1       -0.0697
     27 C           1.8694    0.8166    1.5385 C.ar    1  UNL1        0.2115
     28 N           1.0524   -0.2230    1.2911 N.ar    1  UNL1       -0.1015
     29 N           1.7881   -1.3012    1.5339 N.ar    1  UNL1       -0.0221
     30 N           3.0065   -0.9452    1.9167 N.ar    1  UNL1       -0.0420
     31 N           3.0763    0.3727    1.9183 N.ar    1  UNL1       -0.1967
     32 C           4.2381    1.1493    2.3208 C.3     1  UNL1        0.2446
     33 C           4.1937    1.4119    3.7859 C.2     1  UNL1        0.3894
     34 O           3.7502    2.5084    4.2150 O.co2   1  UNL1       -0.2434
     35 O           4.6081    0.4341    4.6801 O.co2   1  UNL1       -0.2434
@<TRIPOS>BOND
     1     1     2    1
     2     2     3    2
     3     3     4    1
     4     4     5    1
     5     5     6    1
     6     5     7    1
     7     7     8    1
     8     8     9    2
     9     7    10    1
    10    10    11   am
    11    11    12    2
    12    11    13    1
    13    13    14    1
    14    14    15   ar
    15    15    16   ar
    16    16    17   ar
    17    17    18   ar
    18    18    19   ar
    19    19    20    1
    20    20    21    1
    21     3    22    1
    22    22    23   ar
    23    22    24   ar
    24     2    25    1
    25    25    26    1
    26    26    27    1
    27    27    28   ar
    28    28    29   ar
    29    29    30   ar
    30    30    31   ar
    31    31    32    1
    32    32    33    1
    33    33    34   ar
    34    33    35   ar
    35     6     1    1
    36     8     4   am
    37    19    14   ar
    38    31    27   ar
@<TRIPOS>MOLECULE
Cefbuperazone_Cephalosporins2_Active
 42 45 0 0 0
SMALL
GASTEIGER

@<TRIPOS>ATOM
      1 C           7.3987    0.2466    3.2121 C.3     1  UNL1        0.0233
      2 C           6.2696    1.2310    2.9730 C.3     1  UNL1        0.0940
      3 N           5.1498    0.5668    2.3222 N.am    1  UNL1       -0.2706
      4 C           5.2781    0.1370    0.9292 C.3     1  UNL1        0.1158
      5 C           4.5180   -1.1720    0.7117 C.3     1  UNL1        0.1244
      6 N           3.1134   -1.0063    1.0925 N.am    1  UNL1       -0.2039
      7 C           2.8209   -0.3463    2.3414 C.2     1  UNL1        0.3099
      8 O           1.6769   -0.4242    2.8707 O.2     1  UNL1       -0.2645
      9 C           3.8868    0.4295    2.9931 C.2     1  UNL1        0.3034
     10 O           3.6964    0.9505    4.1259 O.2     1  UNL1       -0.2649
     11 C           2.0850   -1.4647    0.1962 C.2     1  UNL1        0.3299
     12 O           0.8672   -1.2667    0.4642 O.2     1  UNL1       -0.2503
     13 N           2.4423   -2.1432   -1.0147 N.am    1  UNL1       -0.1778
     14 C           1.4488   -2.5639   -1.9956 C.3     1  UNL1        0.2044
     15 C           2.0230   -3.6266   -2.9381 C.3     1  UNL1        0.1808
     16 C           3.2332   -3.1368   -3.7164 C.3     1  UNL1        0.0379
     17 O           1.0410   -4.0765   -3.8216 O.3     1  UNL1       -0.2208
     18 C           0.8660   -1.3778   -2.7056 C.2     1  UNL1        0.2662
     19 O           1.5854   -0.6590   -3.4513 O.2     1  UNL1       -0.2713
     20 N          -0.5045   -1.0437   -2.4779 N.am    1  UNL1       -0.1696
     21 C          -1.1491    0.1570   -3.0078 C.3     1  UNL1        0.2677
     22 C          -2.4543    0.4216   -2.4274 C.3     1  UNL1        0.1815
     23 N          -1.9737    1.5683   -1.6839 N.am    1  UNL1       -0.2379
     24 C          -0.6416    1.3943   -2.3193 C.2     1  UNL1        0.2771
     25 O           0.4666    1.9944   -2.2682 O.2     1  UNL1       -0.2700
     26 C          -2.5155    2.2367   -0.5391 C.2     1  UNL1        0.1289
     27 C          -3.5591    1.6383    0.0909 C.2     1  UNL1       -0.0019
     28 C          -4.2625    0.4569   -0.5358 C.3     1  UNL1        0.0835
     29 S          -3.1027   -0.7876   -1.2181 S.3     1  UNL1       -0.1117
     30 C          -4.1170    2.1119    1.3987 C.3     1  UNL1        0.0894
     31 S          -3.0155    1.6819    2.7867 S.3     1  UNL1       -0.0697
     32 C          -3.5289   -0.0352    2.8171 C.ar    1  UNL1        0.2110
     33 N          -2.8537   -1.0417    2.2306 N.ar    1  UNL1       -0.1015
     34 N          -3.5661   -2.1303    2.4963 N.ar    1  UNL1       -0.0221
     35 N          -4.6338   -1.8124    3.2165 N.ar    1  UNL1       -0.0425
     36 N          -4.6243   -0.5100    3.4278 N.ar    1  UNL1       -0.2064
     37 C          -5.6285    0.2255    4.1732 C.3     1  UNL1        0.1578
     38 C          -1.8787    3.4950   -0.0677 C.2     1  UNL1        0.4007
     39 O          -2.4017    4.1956    0.8397 O.co2   1  UNL1       -0.2392
     40 O          -0.7096    3.9490   -0.6637 O.co2   1  UNL1       -0.2392
     41 O          -1.0983    0.1774   -4.4290 O.3     1  UNL1       -0.3284
     42 C          -1.6481    1.3595   -4.9599 C.3     1  UNL1        0.1766
@<TRIPOS>BOND
     1     1     2    1
     2     2     3    1
     3     3     4    1
     4     4     5    1
     5     5     6    1
     6     6     7   am
     7     7     8    2
     8     7     9    1
     9     9    10    2
    10     6    11   am
    11    11    12    2
    12    11    13   am
    13    14    13    1
    14    14    15    1
    15    15    16    1
    16    15    17    1
    17    14    18    1
    18    18    19    2
    19    18    20   am
    20    21    20    1
    21    21    22    1
    22    22    23    1
    23    23    24   am
    24    24    25    2
    25    23    26    1
    26    26    27    2
    27    27    28    1
    28    28    29    1
    29    27    30    1
    30    30    31    1
    31    31    32    1
    32    32    33   ar
    33    33    34   ar
    34    34    35   ar
    35    35    36   ar
    36    36    37    1
    37    26    38    1
    38    38    39   ar
    39    38    40   ar
    40    21    41    1
    41    41    42    1
    42     9     3   am
    43    24    21    1
    44    22    29    1
    45    36    32   ar
@<TRIPOS>MOLECULE
Cefuzonam_Cephalosporins2_Active
 32 35 0 0 0
SMALL
GASTEIGER

@<TRIPOS>ATOM
      1 C          -2.9836   -4.8831    2.8740 C.3     1  UNL1        0.2885
      2 O          -2.3163   -3.6684    2.5837 O.2     1  UNL1       -0.3729
      3 N          -2.9406   -2.4651    2.8254 N.2     1  UNL1       -0.0766
      4 C          -2.3933   -1.3109    2.5794 C.2     1  UNL1        0.1921
      5 C          -3.1864   -0.0879    2.8488 C.ar    1  UNL1        0.1151
      6 C          -4.5429   -0.1307    3.1980 C.ar    1  UNL1        0.0591
      7 S          -5.0479    1.4649    3.4138 S.2     1  UNL1       -0.0478
      8 C          -3.5458    2.1134    3.0664 C.ar    1  UNL1        0.2006
      9 N          -2.6397    1.1601    2.7824 N.ar    1  UNL1       -0.2196
     10 N          -3.2464    3.5041    3.0663 N.pl3   1  UNL1       -0.0998
     11 C          -1.0199   -1.2038    2.0182 C.2     1  UNL1        0.2877
     12 O          -0.6787   -0.1500    1.4157 O.2     1  UNL1       -0.2665
     13 N          -0.0846   -2.2899    2.1569 N.am    1  UNL1       -0.1900
     14 CA          1.3022   -2.3662    1.6693 C.3     1  UNL1        0.2005
     15 C           1.4449   -2.3877    0.2301 C.3     1  UNL1        0.1570
     16 N           1.9740   -1.0465    0.1778 N.am    1  UNL1       -0.2421
     17 C           1.9721   -1.0246    1.6605 C.2     1  UNL1        0.2526
     18 O           2.3187   -0.1997    2.5463 O.2     1  UNL1       -0.2726
     19 CA          2.0169   -0.0930   -0.8887 C.2     1  UNL1        0.1287
     20 C           1.4183   -0.4412   -2.0539 C.2     1  UNL1       -0.0020
     21 C           0.8659   -1.8330   -2.2561 C.3     1  UNL1        0.0835
     22 S          -0.0611   -2.4559   -0.8048 S.3     1  UNL1       -0.1141
     23 C           1.2822    0.4889   -3.2147 C.3     1  UNL1        0.0870
     24 S           2.7717    0.4212   -4.2559 S.3     1  UNL1       -0.0996
     25 C           2.2091    1.7893   -5.2579 C.ar    1  UNL1        0.0955
     26 C           2.4657    3.1397   -5.0579 C.ar    1  UNL1        0.1369
     27 N           1.8758    3.9536   -5.9864 N.ar    1  UNL1       -0.1383
     28 N           1.1619    3.3247   -6.9187 N.ar    1  UNL1       -0.1088
     29 S           1.2443    1.6968   -6.6126 S.2     1  UNL1        0.0436
     30 C           2.6131    1.2447   -0.6337 C.2     1  UNL1        0.4007
     31 O           3.2516    1.4501    0.4311 O.co2   1  UNL1       -0.2392
     32 OXT         2.4986    2.2859   -1.5468 O.co2   1  UNL1       -0.2392
@<TRIPOS>BOND
     1     1     2    1
     2     2     3    1
     3     3     4    2
     4     4     5    1
     5     5     6   ar
     6     6     7   ar
     7     7     8   ar
     8     8     9   ar
     9     8    10    1
    10     4    11    1
    11    11    12    2
    12    11    13   am
    13    14    13    1
    14    14    15    1
    15    15    16    1
    16    16    17   am
    17    17    18    2
    18    16    19    1
    19    19    20    2
    20    20    21    1
    21    21    22    1
    22    20    23    1
    23    23    24    1
    24    24    25    1
    25    25    26   ar
    26    26    27   ar
    27    27    28   ar
    28    28    29   ar
    29    19    30    1
    30    30    31   ar
    31    30    32   ar
    32     9     5   ar
    33    17    14    1
    34    15    22    1
    35    29    25   ar
@<TRIPOS>MOLECULE
Loracarbef_Cephalosporins2_Active
 24 26 0 0 0
SMALL
GASTEIGER

@<TRIPOS>ATOM
      1 C           0.9665   -2.3382   -0.8843 C.3     1  UNL1        0.0281
      2 C           2.0128   -2.1844   -2.0074 C.3     1  UNL1        0.0413
      3 C           2.7338   -0.8444   -2.0157 C.2     1  UNL1        0.0556
      4 CA          2.8080   -0.0938   -0.8911 C.2     1  UNL1        0.1410
      5 N           2.1685   -0.6298    0.2641 N.am    1  UNL1       -0.2508
      6 C           1.5847   -1.9298    0.4565 C.3     1  UNL1        0.1092
      7 CA          0.7016   -1.4713    1.5098 C.3     1  UNL1        0.1899
      8 C           1.3677   -0.1304    1.4018 C.2     1  UNL1        0.2511
      9 O           1.2447    0.9754    1.9902 O.2     1  UNL1       -0.2726
     10 N          -0.6881   -1.3654    1.0755 N.am    1  UNL1       -0.1946
     11 C          -1.7281   -0.8829    1.9299 C.2     1  UNL1        0.2635
     12 O          -1.4844   -0.5931    3.1315 O.2     1  UNL1       -0.2714
     13 CA         -3.1090   -0.6866    1.3933 C.3     1  UNL1        0.1915
     14 C          -3.1748    0.4829    0.4600 C.ar    1  UNL1        0.0038
     15 C          -2.5065    0.4678   -0.7747 C.ar    1  UNL1       -0.0024
     16 C          -2.5758    1.5751   -1.6249 C.ar    1  UNL1       -0.0003
     17 C          -3.3123    2.7012   -1.2463 C.ar    1  UNL1       -0.0000
     18 C          -3.9794    2.7203   -0.0179 C.ar    1  UNL1       -0.0003
     19 C          -3.9102    1.6133    0.8334 C.ar    1  UNL1       -0.0024
     20 N          -3.5804   -1.8960    0.7376 N.3     1  UNL1       -0.1182
     21 C           3.4580    1.2342   -0.8037 C.2     1  UNL1        0.4017
     22 O           3.7994    1.8719   -1.8339 O.co2   1  UNL1       -0.2391
     23 OXT         3.6828    1.8052    0.4424 O.co2   1  UNL1       -0.2391
     24 CL          3.5206   -0.4012   -3.5260 Cl      1  UNL1       -0.0854
@<TRIPOS>BOND
     1     1     2    1
     2     2     3    1
     3     3     4    2
     4     4     5    1
     5     5     6    1
     6     6     7    1
     7     7     8    1
     8     8     9    2
     9     7    10    1
    10    10    11   am
    11    11    12    2
    12    11    13    1
    13    13    14    1
    14    14    15   ar
    15    15    16   ar
    16    16    17   ar
    17    17    18   ar
    18    18    19   ar
    19    13    20    1
    20     4    21    1
    21    21    22   ar
    22    21    23   ar
    23     3    24    1
    24     6     1    1
    25     8     5   am
    26    19    14   ar
@<TRIPOS>MOLECULE
Cefixime_Cephalosporins3_Active
 30 32 0 0 0
SMALL
GASTEIGER

@<TRIPOS>ATOM
      1 C           4.8013    2.7947   -0.6206 C.2     1  UNL1       -0.0003
      2 C           4.2264    2.1095    0.3604 C.2     1  UNL1       -0.0020
      3 C           3.4226    0.8929    0.1260 C.2     1  UNL1        0.0090
      4 CA          2.8666    0.2024    1.1537 C.2     1  UNL1        0.1319
      5 N           2.1009   -0.9617    0.8329 N.am    1  UNL1       -0.2419
      6 C           1.8550   -1.6234   -0.4226 C.3     1  UNL1        0.1570
      7 CA          0.6570   -2.2766    0.0595 C.3     1  UNL1        0.2005
      8 C           0.9719   -1.7229    1.4174 C.2     1  UNL1        0.2526
      9 O           0.4508   -1.8180    2.5591 O.2     1  UNL1       -0.2726
     10 N          -0.6032   -1.7406   -0.4798 N.am    1  UNL1       -0.1900
     11 C          -1.1960   -0.4491   -0.2516 C.2     1  UNL1        0.2877
     12 O          -0.6365    0.3846    0.5109 O.2     1  UNL1       -0.2665
     13 C          -2.4853   -0.1039   -0.8984 C.2     1  UNL1        0.1921
     14 N          -2.7906    1.1286   -1.1999 N.2     1  UNL1       -0.0761
     15 O          -1.9273    2.2046   -1.1157 O.2     1  UNL1       -0.3646
     16 C          -0.6633    2.1959   -1.7657 C.3     1  UNL1        0.3510
     17 C           0.1267    3.3811   -1.3414 C.2     1  UNL1        0.4114
     18 O           0.9258    3.2900   -0.3739 O.co2   1  UNL1       -0.2414
     19 O          -0.0458    4.5981   -1.9864 O.co2   1  UNL1       -0.2414
     20 C          -3.4961   -1.1567   -1.1434 C.ar    1  UNL1        0.1151
     21 C          -4.6800   -0.9109   -1.8500 C.ar    1  UNL1        0.0591
     22 S          -5.5444   -2.3581   -1.8852 S.2     1  UNL1       -0.0478
     23 C          -4.3943   -3.2039   -1.0146 C.ar    1  UNL1        0.2006
     24 N          -3.3461   -2.4296   -0.6798 N.ar    1  UNL1       -0.2196
     25 N          -4.4978   -4.5770   -0.6590 N.pl3   1  UNL1       -0.0998
     26 S           1.7029   -0.3521   -1.7222 S.3     1  UNL1       -0.1138
     27 C           3.3374    0.3581   -1.2930 C.3     1  UNL1        0.0868
     28 C           2.9460    0.6264    2.5747 C.2     1  UNL1        0.4009
     29 O           3.2422    1.8079    2.8950 O.co2   1  UNL1       -0.2392
     30 OXT         2.6730   -0.2903    3.5816 O.co2   1  UNL1       -0.2392
@<TRIPOS>BOND
     1     1     2    2
     2     2     3    1
     3     3     4    2
     4     4     5    1
     5     5     6    1
     6     6     7    1
     7     7     8    1
     8     8     9    2
     9     7    10    1
    10    10    11   am
    11    11    12    2
    12    11    13    1
    13    13    14    2
    14    14    15    1
    15    15    16    1
    16    16    17    1
    17    17    18   ar
    18    17    19   ar
    19    13    20    1
    20    20    21   ar
    21    21    22   ar
    22    22    23   ar
    23    23    24   ar
    24    23    25    1
    25     6    26    1
    26    26    27    1
    27     4    28    1
    28    28    29   ar
    29    28    30   ar
    30    27     3    1
    31     8     5   am
    32    24    20   ar
@<TRIPOS>MOLECULE
Cefotaxime_Cephalosporins3_Active
 30 32 0 0 0
SMALL
GASTEIGER

@<TRIPOS>ATOM
      1 C          -7.7237   -0.0447   -1.2010 C.3     1  UNL1        0.1212
      2 C          -6.5361   -0.8312   -0.7784 C.2     1  UNL1        0.3179
      3 O          -6.1724   -1.8240   -1.4639 O.2     1  UNL1       -0.2501
      4 O          -5.8461   -0.4647    0.3788 O.3     1  UNL1       -0.4438
      5 C          -4.6689   -1.1362    0.8139 C.3     1  UNL1        0.2331
      6 C          -3.4711   -0.6287    0.0711 C.2     1  UNL1        0.0301
      7 CA         -2.8581    0.5407    0.3779 C.2     1  UNL1        0.1314
      8 N          -1.7053    0.8984   -0.3882 N.am    1  UNL1       -0.2420
      9 C          -1.1069    0.2837   -1.5448 C.3     1  UNL1        0.1570
     10 CA          0.1737    0.9234   -1.3311 C.3     1  UNL1        0.2005
     11 C          -0.4486    1.6500   -0.1767 C.2     1  UNL1        0.2526
     12 O          -0.0453    2.5008    0.6586 O.2     1  UNL1       -0.2726
     13 N           1.1945    0.0035   -0.8403 N.am    1  UNL1       -0.1900
     14 C           2.5287    0.4182   -0.5345 C.2     1  UNL1        0.2877
     15 O           2.8682    1.6154   -0.7385 O.2     1  UNL1       -0.2665
     16 C           3.5153   -0.5527    0.0088 C.2     1  UNL1        0.1921
     17 N           3.1336   -1.6317    0.6297 N.2     1  UNL1       -0.0766
     18 O           1.8131   -1.9479    0.8560 O.2     1  UNL1       -0.3729
     19 C           1.4768   -3.1430    1.5356 C.3     1  UNL1        0.2885
     20 C           4.9690   -0.3080   -0.1387 C.ar    1  UNL1        0.1151
     21 C           5.9326   -1.1284    0.4613 C.ar    1  UNL1        0.0591
     22 S           7.4430   -0.5147    0.0314 S.2     1  UNL1       -0.0478
     23 C           6.8073    0.7347   -0.8800 C.ar    1  UNL1        0.2006
     24 N           5.4618    0.7212   -0.8842 N.ar    1  UNL1       -0.2196
     25 N           7.5822    1.7023   -1.5771 N.pl3   1  UNL1       -0.0998
     26 S          -1.2135   -1.5289   -1.3217 S.3     1  UNL1       -0.1140
     27 C          -3.0348   -1.4401   -1.1277 C.3     1  UNL1        0.0862
     28 C          -3.2615    1.4143    1.5076 C.2     1  UNL1        0.4007
     29 O          -4.0173    0.9987    2.4253 O.co2   1  UNL1       -0.2392
     30 OXT        -2.7901    2.7192    1.5694 O.co2   1  UNL1       -0.2392
@<TRIPOS>BOND
     1     1     2    1
     2     2     3    2
     3     2     4    1
     4     4     5    1
     5     5     6    1
     6     6     7    2
     7     7     8    1
     8     8     9    1
     9     9    10    1
    10    10    11    1
    11    11    12    2
    12    10    13    1
    13    13    14   am
    14    14    15    2
    15    14    16    1
    16    16    17    2
    17    17    18    1
    18    18    19    1
    19    16    20    1
    20    20    21   ar
    21    21    22   ar
    22    22    23   ar
    23    23    24   ar
    24    23    25    1
    25     9    26    1
    26    26    27    1
    27     7    28    1
    28    28    29   ar
    29    28    30   ar
    30    27     6    1
    31    11     8   am
    32    24    20   ar
@<TRIPOS>MOLECULE
Ceftazidime_Cephalosporins3_Active
 37 40 0 0 0
SMALL
GASTEIGER

@<TRIPOS>ATOM
      1 C          -6.0631    3.4050   -0.6848 C.3     1  UNL1        0.0583
      2 C          -4.6515    3.6064   -0.1597 C.3     1  UNL1        0.2530
      3 C          -4.6983    3.7681    1.3505 C.3     1  UNL1        0.0583
      4 C          -4.0721    4.8491   -0.7697 C.2     1  UNL1        0.4027
      5 O          -3.0248    4.7928   -1.4678 O.co2   1  UNL1       -0.2417
      6 O          -4.6894    6.0783   -0.5667 O.co2   1  UNL1       -0.2417
      7 O          -3.8482    2.4783   -0.4961 O.2     1  UNL1       -0.3736
      8 N          -4.1678    1.2118   -0.0514 N.2     1  UNL1       -0.0764
      9 C          -3.4571    0.1586   -0.3340 C.2     1  UNL1        0.1921
     10 C          -3.8825   -1.1436    0.2295 C.ar    1  UNL1        0.1151
     11 C          -4.9182   -1.2526    1.1661 C.ar    1  UNL1        0.0591
     12 S          -5.0900   -2.8907    1.5268 S.2     1  UNL1       -0.0478
     13 C          -3.8671   -3.3679    0.4911 C.ar    1  UNL1        0.2006
     14 N          -3.3078   -2.3217   -0.1435 N.ar    1  UNL1       -0.2196
     15 N          -3.4572   -4.7149    0.2902 N.pl3   1  UNL1       -0.0998
     16 C          -2.2455    0.2549   -1.1898 C.2     1  UNL1        0.2877
     17 O          -2.1035    1.2204   -1.9886 O.2     1  UNL1       -0.2665
     18 N          -1.2266   -0.7453   -1.1072 N.am    1  UNL1       -0.1900
     19 CA         -0.0001   -0.6824   -1.8946 C.3     1  UNL1        0.2005
     20 C           1.0814    0.0120   -1.2250 C.3     1  UNL1        0.1568
     21 N           1.8168   -1.2002   -0.9734 N.am    1  UNL1       -0.2465
     22 C           0.7757   -1.9498   -1.7104 C.2     1  UNL1        0.2525
     23 O           0.5879   -3.1575   -2.0103 O.2     1  UNL1       -0.2726
     24 CA          2.8551   -1.4946   -0.0360 C.2     1  UNL1        0.0680
     25 C           3.1682   -0.5363    0.8681 C.2     1  UNL1        0.0589
     26 C           2.5335    0.8352    0.7941 C.3     1  UNL1        0.0893
     27 S           0.7434    0.7891    0.3962 S.3     1  UNL1       -0.1139
     28 C           4.2372   -0.7205    1.9029 C.3     1  UNL1        0.3480
     29 N           5.4927   -0.1397    1.4507 N.ar    1  UNL1       -0.1557
     30 C           6.3419   -0.8850    0.6894 C.ar    1  UNL1        0.2904
     31 C           7.5450   -0.3399    0.2356 C.ar    1  UNL1        0.0758
     32 C           7.8651    0.9765    0.5696 C.ar    1  UNL1        0.0126
     33 C           6.9843    1.7292    1.3477 C.ar    1  UNL1        0.0758
     34 C           5.7910    1.1477    1.7821 C.ar    1  UNL1        0.2904
     35 C           3.4622   -2.8478   -0.0441 C.2     1  UNL1        0.0862
     36 O           3.3541   -3.5734   -1.0675 O.co2   1  UNL1       -0.5433
     37 OXT         4.1354   -3.3497    1.0636 O.co2   1  UNL1       -0.5433
@<TRIPOS>UNITY_ATOM_ATTR
29 1
charge 1
37 1
charge -1
@<TRIPOS>BOND
     1     1     2    1
     2     2     3    1
     3     2     4    1
     4     4     5   ar
     5     4     6   ar
     6     2     7    1
     7     7     8    1
     8     8     9    2
     9     9    10    1
    10    10    11   ar
    11    11    12   ar
    12    12    13   ar
    13    13    14   ar
    14    13    15    1
    15     9    16    1
    16    16    17    2
    17    16    18   am
    18    19    18    1
    19    19    20    1
    20    20    21    1
    21    21    22   am
    22    22    23    2
    23    21    24    1
    24    24    25    2
    25    25    26    1
    26    26    27    1
    27    25    28    1
    28    28    29    1
    29    29    30   ar
    30    30    31   ar
    31    31    32   ar
    32    32    33   ar
    33    33    34   ar
    34    24    35    1
    35    35    36   ar
    36    35    37   ar
    37    14    10   ar
    38    22    19    1
    39    20    27    1
    40    34    29   ar
@<TRIPOS>MOLECULE
Cefoperazone_Cephalosporins3_Active
 44 48 0 0 0
SMALL
GASTEIGER

@<TRIPOS>ATOM
      1 C          10.4922   -0.0070    1.2139 C.3     1  UNL1        0.0233
      2 C          10.0453   -0.3687   -0.1903 C.3     1  UNL1        0.0940
      3 N           8.6044   -0.2011   -0.3210 N.am    1  UNL1       -0.2706
      4 C           8.0271    1.1433   -0.2922 C.3     1  UNL1        0.1158
      5 C           6.9783    1.2856   -1.3932 C.3     1  UNL1        0.1244
      6 N           5.9444    0.2607   -1.2327 N.am    1  UNL1       -0.2039
      7 C           6.3697   -1.0959   -0.9970 C.2     1  UNL1        0.3099
      8 O           5.5819   -2.0663   -1.1615 O.2     1  UNL1       -0.2645
      9 C           7.7561   -1.3329   -0.5686 C.2     1  UNL1        0.3034
     10 O           8.1945   -2.5076   -0.4373 O.2     1  UNL1       -0.2649
     11 C           4.5590    0.6481   -1.2720 C.2     1  UNL1        0.3301
     12 O           4.2469    1.8277   -1.5931 O.2     1  UNL1       -0.2503
     13 N           3.5307   -0.2887   -0.9351 N.am    1  UNL1       -0.1759
     14 CA          2.1168    0.0692   -0.8989 C.3     1  UNL1        0.1965
     15 C           1.8073    0.9386    0.2824 C.ar    1  UNL1        0.0065
     16 C           1.0986    2.1292    0.0865 C.ar    1  UNL1        0.0011
     17 C           0.7699    2.9392    1.1775 C.ar    1  UNL1        0.0418
     18 C           1.1449    2.5586    2.4692 C.ar    1  UNL1        0.1957
     19 C           1.8479    1.3674    2.6712 C.ar    1  UNL1        0.0418
     20 C           2.1768    0.5568    1.5812 C.ar    1  UNL1        0.0011
     21 O           0.8180    3.3629    3.5519 O.3     1  UNL1       -0.2866
     22 C           1.2575   -1.1544   -0.8863 C.2     1  UNL1        0.2660
     23 O           1.6163   -2.1821   -0.2484 O.2     1  UNL1       -0.2711
     24 N          -0.0132   -1.1146   -1.5373 N.am    1  UNL1       -0.1934
     25 CA         -0.9886   -2.1919   -1.4105 C.3     1  UNL1        0.2002
     26 C          -1.9031   -2.0109   -0.3000 C.3     1  UNL1        0.1570
     27 N          -3.0119   -1.6794   -1.1571 N.am    1  UNL1       -0.2421
     28 C          -2.1421   -1.9280   -2.3281 C.2     1  UNL1        0.2526
     29 O          -2.2904   -1.8816   -3.5771 O.2     1  UNL1       -0.2726
     30 CA         -4.2331   -0.9860   -0.8917 C.2     1  UNL1        0.1287
     31 C          -4.3898   -0.4478    0.3423 C.2     1  UNL1       -0.0020
     32 C          -3.3637   -0.6813    1.4269 C.3     1  UNL1        0.0835
     33 S          -1.6351   -0.5896    0.8222 S.3     1  UNL1       -0.1141
     34 C          -5.5930    0.3475    0.7351 C.3     1  UNL1        0.0894
     35 S          -6.9742   -0.7625    1.1414 S.3     1  UNL1       -0.0697
     36 C          -8.1241    0.6030    1.2680 C.ar    1  UNL1        0.2110
     37 N          -8.8562    1.0791    0.2453 N.ar    1  UNL1       -0.1015
     38 N          -9.5612    2.0769    0.7657 N.ar    1  UNL1       -0.0221
     39 N          -9.2781    2.2129    2.0541 N.ar    1  UNL1       -0.0425
     40 N          -8.3844    1.3002    2.3828 N.ar    1  UNL1       -0.2064
     41 C          -7.8168    1.1245    3.7077 C.3     1  UNL1        0.1578
     42 C          -5.2033   -0.8072   -1.9989 C.2     1  UNL1        0.4007
     43 O          -6.0492    0.1256   -1.9878 O.co2   1  UNL1       -0.2392
     44 OXT        -5.1728   -1.6718   -3.0851 O.co2   1  UNL1       -0.2392
@<TRIPOS>BOND
     1     1     2    1
     2     2     3    1
     3     3     4    1
     4     4     5    1
     5     5     6    1
     6     6     7   am
     7     7     8    2
     8     7     9    1
     9     9    10    2
    10     6    11   am
    11    11    12    2
    12    11    13   am
    13    14    13    1
    14    14    15    1
    15    15    16   ar
    16    16    17   ar
    17    17    18   ar
    18    18    19   ar
    19    19    20   ar
    20    18    21    1
    21    14    22    1
    22    22    23    2
    23    22    24   am
    24    25    24    1
    25    25    26    1
    26    26    27    1
    27    27    28   am
    28    28    29    2
    29    27    30    1
    30    30    31    2
    31    31    32    1
    32    32    33    1
    33    31    34    1
    34    34    35    1
    35    35    36    1
    36    36    37   ar
    37    37    38   ar
    38    38    39   ar
    39    39    40   ar
    40    40    41    1
    41    30    42    1
    42    42    43   ar
    43    42    44   ar
    44     9     3   am
    45    20    15   ar
    46    28    25    1
    47    26    33    1
    48    40    36   ar
@<TRIPOS>MOLECULE
Cefdinir_Cephalosporins3_Active
 26 28 0 0 0
SMALL
GASTEIGER

@<TRIPOS>ATOM
      1 C          -5.8140    2.8664    0.9053 C.2     1  UNL1       -0.0003
      2 C          -5.2958    1.9626    0.0824 C.2     1  UNL1       -0.0020
      3 C          -4.1590    1.0961    0.4541 C.2     1  UNL1        0.0090
      4 CA         -3.6752    0.1581   -0.3994 C.2     1  UNL1        0.1319
      5 N          -2.5806   -0.6438    0.0498 N.am    1  UNL1       -0.2419
      6 C          -1.9330   -0.7365    1.3316 C.3     1  UNL1        0.1570
      7 CA         -0.7390   -1.3437    0.7830 C.3     1  UNL1        0.2005
      8 C          -1.4226   -1.3419   -0.5510 C.2     1  UNL1        0.2526
      9 O          -1.1116   -1.7245   -1.7091 O.2     1  UNL1       -0.2726
     10 N           0.4025   -0.4349    0.7530 N.am    1  UNL1       -0.1899
     11 C           1.6803   -0.8174    0.2366 C.2     1  UNL1        0.2879
     12 O           1.8551   -1.9953   -0.1786 O.2     1  UNL1       -0.2665
     13 C           2.8006    0.1599    0.1971 C.2     1  UNL1        0.1968
     14 N           2.5776    1.4400    0.1278 N.2     1  UNL1       -0.0231
     15 O           1.3153    1.9850    0.0608 O.2     1  UNL1       -0.1430
     16 C           4.2103   -0.2940    0.2241 C.ar    1  UNL1        0.1153
     17 C           4.5930   -1.6192    0.4664 C.ar    1  UNL1        0.0591
     18 S           6.2778   -1.6654    0.4272 S.2     1  UNL1       -0.0478
     19 C           6.4324   -0.0300    0.1160 C.ar    1  UNL1        0.2006
     20 N           5.2370    0.5828    0.0357 N.ar    1  UNL1       -0.2196
     21 N           7.6719    0.6491   -0.0423 N.pl3   1  UNL1       -0.0998
     22 S          -1.8067    0.9584    2.0007 S.3     1  UNL1       -0.1138
     23 C          -3.6213    1.1953    1.8721 C.3     1  UNL1        0.0868
     24 C          -4.1719   -0.0380   -1.7853 C.2     1  UNL1        0.4009
     25 O          -4.8543    0.8425   -2.3729 O.co2   1  UNL1       -0.2392
     26 OXT        -3.8688   -1.2115   -2.4637 O.co2   1  UNL1       -0.2392
@<TRIPOS>BOND
     1     1     2    2
     2     2     3    1
     3     3     4    2
     4     4     5    1
     5     5     6    1
     6     6     7    1
     7     7     8    1
     8     8     9    2
     9     7    10    1
    10    10    11   am
    11    11    12    2
    12    11    13    1
    13    13    14    2
    14    14    15    1
    15    13    16    1
    16    16    17   ar
    17    17    18   ar
    18    18    19   ar
    19    19    20   ar
    20    19    21    1
    21     6    22    1
    22    22    23    1
    23     4    24    1
    24    24    25   ar
    25    24    26   ar
    26    23     3    1
    27     8     5   am
    28    20    16   ar
@<TRIPOS>MOLECULE
Cefcapene_Cephalosporins3_Active
 30 32 0 0 0
SMALL
GASTEIGER

@<TRIPOS>ATOM
      1 C           0.7728   -3.9884   -0.5791 C.3     1  UNL1        0.0050
      2 C           0.7525   -2.6281   -1.2438 C.3     1  UNL1        0.0262
      3 C           2.1175   -2.0238   -1.1899 C.2     1  UNL1       -0.0200
      4 C           2.4211   -0.8634   -0.5852 C.2     1  UNL1        0.0690
      5 C           3.8201   -0.3731   -0.6580 C.ar    1  UNL1        0.0939
      6 C           4.7954   -0.9643   -1.4742 C.ar    1  UNL1        0.0575
      7 S           6.2285   -0.1091   -1.2360 S.2     1  UNL1       -0.0479
      8 C           5.5533    0.9447   -0.1276 C.ar    1  UNL1        0.2006
      9 N           4.2513    0.6828    0.0885 N.ar    1  UNL1       -0.2213
     10 N           6.2579    1.9957    0.5217 N.pl3   1  UNL1       -0.0998
     11 C           1.3959   -0.0676    0.1368 C.2     1  UNL1        0.2664
     12 O           0.4469   -0.6514    0.7267 O.2     1  UNL1       -0.2683
     13 N           1.4987    1.3673    0.1628 N.am    1  UNL1       -0.1913
     14 CA          0.5360    2.3547    0.6753 C.3     1  UNL1        0.2005
     15 C          -0.6271    2.5386   -0.1626 C.3     1  UNL1        0.1570
     16 N          -1.5098    1.8754    0.7641 N.am    1  UNL1       -0.2420
     17 C          -0.3833    1.7904    1.7205 C.2     1  UNL1        0.2526
     18 O          -0.2429    1.3649    2.8968 O.2     1  UNL1       -0.2726
     19 CA         -2.7079    1.1362    0.5587 C.2     1  UNL1        0.1314
     20 C          -2.7778    0.3955   -0.5646 C.2     1  UNL1        0.0302
     21 C          -1.5379    0.2023   -1.3985 C.3     1  UNL1        0.0862
     22 S          -0.6731    1.7616   -1.8369 S.3     1  UNL1       -0.1140
     23 C          -4.0099   -0.3525   -0.9761 C.3     1  UNL1        0.2349
     24 O          -3.7406   -1.7468   -1.0943 O.3     1  UNL1       -0.4277
     25 C          -3.5256   -2.5752    0.0100 C.2     1  UNL1        0.4414
     26 O          -3.5939   -2.1217    1.1834 O.2     1  UNL1       -0.2227
     27 N          -3.2261   -3.9503   -0.1943 N.am    1  UNL1       -0.0475
     28 C          -3.7952    1.2663    1.5570 C.2     1  UNL1        0.4007
     29 O          -4.8901    0.6577    1.4283 O.co2   1  UNL1       -0.2392
     30 OXT        -3.6069    2.0817    2.6659 O.co2   1  UNL1       -0.2392
@<TRIPOS>BOND
     1     1     2    1
     2     2     3    1
     3     3     4    2
     4     4     5    1
     5     5     6   ar
     6     6     7   ar
     7     7     8   ar
     8     8     9   ar
     9     8    10    1
    10     4    11    1
    11    11    12    2
    12    11    13   am
    13    14    13    1
    14    14    15    1
    15    15    16    1
    16    16    17   am
    17    17    18    2
    18    16    19    1
    19    19    20    2
    20    20    21    1
    21    21    22    1
    22    20    23    1
    23    23    24    1
    24    24    25    1
    25    25    26    2
    26    25    27   am
    27    19    28    1
    28    28    29   ar
    29    28    30   ar
    30     9     5   ar
    31    17    14    1
    32    15    22    1
@<TRIPOS>MOLECULE
Cefdaloxime_Cephalosporins3_Active
 27 29 0 0 0
SMALL
GASTEIGER

@<TRIPOS>ATOM
      1 C           7.3043   -1.1195   -0.4281 C.3     1  UNL1        0.1746
      2 O           6.1158   -1.0877    0.2995 O.3     1  UNL1       -0.3466
      3 C           5.1870   -0.5196   -0.5728 C.3     1  UNL1        0.1668
      4 C           3.8820   -0.3175    0.1300 C.2     1  UNL1        0.0162
      5 CA          3.3626    0.9116    0.3693 C.2     1  UNL1        0.1302
      6 N           2.0642    0.9695    0.9661 N.am    1  UNL1       -0.2420
      7 C           1.2101   -0.0694    1.4790 C.3     1  UNL1        0.1570
      8 CA          0.0167    0.7466    1.3949 C.3     1  UNL1        0.2005
      9 C           0.8943    1.8755    0.9473 C.2     1  UNL1        0.2526
     10 O           0.6993    3.0779    0.6307 O.2     1  UNL1       -0.2726
     11 N          -0.8641    0.3615    0.2982 N.am    1  UNL1       -0.1899
     12 C          -2.1233   -0.2783    0.5207 C.2     1  UNL1        0.2879
     13 O          -2.4952   -0.5203    1.7011 O.2     1  UNL1       -0.2665
     14 C          -2.9945   -0.6524   -0.6260 C.2     1  UNL1        0.1968
     15 N          -2.4991   -0.8688   -1.8098 N.2     1  UNL1       -0.0231
     16 O          -1.1541   -0.7957   -2.0931 O.2     1  UNL1       -0.1430
     17 C          -4.4586   -0.8012   -0.4553 C.ar    1  UNL1        0.1153
     18 C          -5.1449   -0.4329    0.7086 C.ar    1  UNL1        0.0591
     19 S          -6.7788   -0.7545    0.4457 S.2     1  UNL1       -0.0478
     20 C          -6.5366   -1.3288   -1.1057 C.ar    1  UNL1        0.2006
     21 N          -5.2387   -1.2927   -1.4595 N.ar    1  UNL1       -0.2196
     22 N          -7.5688   -1.7981   -1.9642 N.pl3   1  UNL1       -0.0998
     23 S           1.3557   -1.5072    0.3580 S.3     1  UNL1       -0.1140
     24 C           3.1713   -1.5657    0.6060 C.3     1  UNL1        0.0850
     25 C           4.0261    2.1819   -0.0208 C.2     1  UNL1        0.4007
     26 O           5.0165    2.1985   -0.7985 O.co2   1  UNL1       -0.2392
     27 OXT         3.5507    3.3873    0.4787 O.co2   1  UNL1       -0.2392
@<TRIPOS>BOND
     1     1     2    1
     2     2     3    1
     3     3     4    1
     4     4     5    2
     5     5     6    1
     6     6     7    1
     7     7     8    1
     8     8     9    1
     9     9    10    2
    10     8    11    1
    11    11    12   am
    12    12    13    2
    13    12    14    1
    14    14    15    2
    15    15    16    1
    16    14    17    1
    17    17    18   ar
    18    18    19   ar
    19    19    20   ar
    20    20    21   ar
    21    20    22    1
    22     7    23    1
    23    23    24    1
    24     5    25    1
    25    25    26   ar
    26    25    27   ar
    27    24     4    1
    28     9     6   am
    29    21    17   ar
@<TRIPOS>MOLECULE
Cefmenoxime_Cephalosporins3_Active
 33 36 0 0 0
SMALL
GASTEIGER

@<TRIPOS>ATOM
      1 C          -5.8538    1.1896    2.7490 C.3     1  UNL1        0.1578
      2 N          -5.1035    2.4297    2.8361 N.ar    1  UNL1       -0.2064
      3 C          -3.8023    2.6333    2.5882 C.ar    1  UNL1        0.2110
      4 N          -3.4908    3.9252    2.7943 N.ar    1  UNL1       -0.1015
      5 N          -4.6299    4.4955    3.1702 N.ar    1  UNL1       -0.0221
      6 N          -5.6035    3.5959    3.1966 N.ar    1  UNL1       -0.0425
      7 S          -2.6406    1.3853    2.0428 S.3     1  UNL1       -0.0697
      8 C          -2.9956    1.7270    0.2935 C.3     1  UNL1        0.0894
      9 C          -2.1130    0.9028   -0.5870 C.2     1  UNL1       -0.0020
     10 CA         -1.1676    1.4514   -1.3861 C.2     1  UNL1        0.1287
     11 N          -0.3429    0.5565   -2.1377 N.am    1  UNL1       -0.2421
     12 C          -0.3875   -0.8737   -2.2930 C.3     1  UNL1        0.1570
     13 CA          0.9992   -0.9613   -2.7037 C.3     1  UNL1        0.2005
     14 C           1.0394    0.5365   -2.6632 C.2     1  UNL1        0.2526
     15 O           1.9132    1.4077   -2.9121 O.2     1  UNL1       -0.2726
     16 N           1.8690   -1.4845   -1.6566 N.am    1  UNL1       -0.1900
     17 C           2.4607   -2.7839   -1.7247 C.2     1  UNL1        0.2877
     18 O           2.2725   -3.4986   -2.7465 O.2     1  UNL1       -0.2665
     19 C           3.2854   -3.2874   -0.5945 C.2     1  UNL1        0.1921
     20 N           4.1723   -4.2243   -0.7715 N.2     1  UNL1       -0.0766
     21 O           4.4311   -4.7962   -1.9967 O.2     1  UNL1       -0.3729
     22 C           5.4140   -5.8083   -2.1127 C.3     1  UNL1        0.2885
     23 C           3.1142   -2.7334    0.7694 C.ar    1  UNL1        0.1151
     24 C           3.9524   -3.0858    1.8345 C.ar    1  UNL1        0.0591
     25 S           3.4005   -2.2561    3.1954 S.2     1  UNL1       -0.0478
     26 C           2.1472   -1.5103    2.3776 C.ar    1  UNL1        0.2006
     27 N           2.1131   -1.8628    1.0805 N.ar    1  UNL1       -0.2196
     28 N           1.2170   -0.6112    2.9682 N.pl3   1  UNL1       -0.0998
     29 S          -0.8594   -1.5956   -0.6788 S.3     1  UNL1       -0.1141
     30 C          -2.3874   -0.5842   -0.6226 C.3     1  UNL1        0.0835
     31 C          -0.8822    2.9069   -1.4451 C.2     1  UNL1        0.4007
     32 O          -0.1903    3.3680   -2.3899 O.co2   1  UNL1       -0.2392
     33 OXT        -1.3510    3.7832   -0.4738 O.co2   1  UNL1       -0.2392
@<TRIPOS>BOND
     1     1     2    1
     2     2     3   ar
     3     3     4   ar
     4     4     5   ar
     5     5     6   ar
     6     3     7    1
     7     7     8    1
     8     8     9    1
     9     9    10    2
    10    10    11    1
    11    11    12    1
    12    12    13    1
    13    13    14    1
    14    14    15    2
    15    13    16    1
    16    16    17   am
    17    17    18    2
    18    17    19    1
    19    19    20    2
    20    20    21    1
    21    21    22    1
    22    19    23    1
    23    23    24   ar
    24    24    25   ar
    25    25    26   ar
    26    26    27   ar
    27    26    28    1
    28    12    29    1
    29    29    30    1
    30    10    31    1
    31    31    32   ar
    32    31    33   ar
    33     6     2   ar
    34    30     9    1
    35    14    11   am
    36    27    23   ar
@<TRIPOS>MOLECULE
Ceftibuten_Cephalosporins3_Active
 27 29 0 0 0
SMALL
GASTEIGER

@<TRIPOS>ATOM
      1 CG          3.3676   -2.8838   -0.1619 C.3     1  UNL1        0.0866
      2 CB          4.0155   -1.7455   -0.9124 C.2     1  UNL1        0.0073
      3 CA          3.8659   -0.4687   -0.5412 C.2     1  UNL1        0.1316
      4 N           2.9713   -0.1846    0.5342 N.am    1  UNL1       -0.2419
      5 CE          2.2494   -1.0708    1.4104 C.3     1  UNL1        0.1570
      6 SD          1.6654   -2.4914    0.4089 S.3     1  UNL1       -0.1138
      7 CA          1.2864   -0.0569    1.7841 C.3     1  UNL1        0.2005
      8 C           2.0755    0.9138    0.9568 C.2     1  UNL1        0.2526
      9 O           1.9769    2.1401    0.6913 O.2     1  UNL1       -0.2726
     10 N          -0.0235   -0.2673    1.1775 N.am    1  UNL1       -0.1913
     11 C          -1.1297    0.6099    1.4027 C.2     1  UNL1        0.2664
     12 O          -0.9973    1.5955    2.1789 O.2     1  UNL1       -0.2683
     13 C          -2.4278    0.3531    0.7265 C.2     1  UNL1        0.0695
     14 C          -3.2461    1.3533    0.3619 C.2     1  UNL1       -0.0083
     15 C          -2.9583    2.8137    0.5245 C.3     1  UNL1        0.1403
     16 C          -2.0478    3.2901   -0.5557 C.2     1  UNL1        0.3692
     17 O          -0.8324    3.5011   -0.3079 O.co2   1  UNL1       -0.2453
     18 O          -2.5355    3.4833   -1.8414 O.co2   1  UNL1       -0.2453
     19 C          -2.8584   -1.0348    0.4274 C.ar    1  UNL1        0.0940
     20 C          -2.2257   -2.1657    0.9589 C.ar    1  UNL1        0.0575
     21 S          -3.0459   -3.5175    0.3750 S.2     1  UNL1       -0.0479
     22 C          -4.1473   -2.6157   -0.5020 C.ar    1  UNL1        0.2006
     23 N          -3.9282   -1.2938   -0.3787 N.ar    1  UNL1       -0.2213
     24 N          -5.1991   -3.1646   -1.2861 N.pl3   1  UNL1       -0.0998
     25 C           4.5213    0.6153   -1.2930 C.2     1  UNL1        0.4009
     26 O           5.2201    0.3577   -2.3095 O.co2   1  UNL1       -0.2392
     27 OXT         4.3877    1.9341   -0.8795 O.co2   1  UNL1       -0.2392
@<TRIPOS>BOND
     1     1     2    1
     2     2     3    2
     3     3     4    1
     4     4     5    1
     5     5     6    1
     6     5     7    1
     7     7     8    1
     8     8     9    2
     9     7    10    1
    10    10    11   am
    11    11    12    2
    12    11    13    1
    13    13    14    2
    14    14    15    1
    15    15    16    1
    16    16    17   ar
    17    16    18   ar
    18    13    19    1
    19    19    20   ar
    20    20    21   ar
    21    21    22   ar
    22    22    23   ar
    23    22    24    1
    24     3    25    1
    25    25    26   ar
    26    25    27   ar
    27     6     1    1
    28     8     4   am
    29    23    19   ar
@<TRIPOS>MOLECULE
Cefotiam_Cephalosporins3_Active
 34 37 0 0 0
SMALL
GASTEIGER

@<TRIPOS>ATOM
      1 C          -4.0345    3.4999    0.1716 C.3     1  UNL1        0.0897
      2 N          -5.4867    3.4184    0.3026 N.3     1  UNL1       -0.2686
      3 C          -5.9218    4.5047    1.1838 C.3     1  UNL1        0.0897
      4 C          -5.8433    2.1108    0.8699 C.3     1  UNL1        0.0990
      5 C          -5.3400    1.9079    2.3036 C.3     1  UNL1        0.1487
      6 N          -4.8147    0.5618    2.4660 N.ar    1  UNL1       -0.2070
      7 C          -3.5712    0.2005    2.8186 C.ar    1  UNL1        0.2110
      8 N          -3.4679   -1.1421    2.8407 N.ar    1  UNL1       -0.1015
      9 N          -4.6691   -1.5812    2.4853 N.ar    1  UNL1       -0.0221
     10 N          -5.4851   -0.5579    2.2610 N.ar    1  UNL1       -0.0425
     11 S          -2.2468    1.3262    3.2435 S.3     1  UNL1       -0.0697
     12 C          -1.6754    1.4783    1.5235 C.3     1  UNL1        0.0894
     13 C          -0.6621    0.4265    1.1998 C.2     1  UNL1       -0.0020
     14 CA         -0.8854   -0.5488    0.2869 C.2     1  UNL1        0.1287
     15 N           0.2009   -1.4345   -0.0032 N.am    1  UNL1       -0.2421
     16 C           1.5156   -1.5477    0.5766 C.3     1  UNL1        0.1570
     17 CA          2.0642   -2.2337   -0.5752 C.3     1  UNL1        0.2002
     18 C           0.6786   -2.2360   -1.1507 C.2     1  UNL1        0.2526
     19 O           0.1580   -2.6721   -2.2072 O.2     1  UNL1       -0.2726
     20 N           2.9237   -1.3823   -1.3912 N.am    1  UNL1       -0.1948
     21 C           3.6070   -1.8664   -2.5532 C.2     1  UNL1        0.2479
     22 O           3.5353   -3.0822   -2.8768 O.2     1  UNL1       -0.2729
     23 C           4.3660   -0.9141   -3.4231 C.3     1  UNL1        0.1330
     24 C           5.4143   -0.2021   -2.6317 C.ar    1  UNL1        0.0767
     25 C           5.1648    1.0311   -2.0234 C.ar    1  UNL1        0.0534
     26 S           6.5728    1.4525   -1.1909 S.2     1  UNL1       -0.0482
     27 C           7.3995    0.0681   -1.6441 C.ar    1  UNL1        0.2003
     28 N           6.6469   -0.7400   -2.4157 N.ar    1  UNL1       -0.2253
     29 N           8.7364   -0.2369   -1.2582 N.pl3   1  UNL1       -0.0998
     30 S           2.1160    0.1416    0.9373 S.3     1  UNL1       -0.1141
     31 C           0.6418    0.4869    1.9705 C.3     1  UNL1        0.0835
     32 C          -2.1511   -0.6892   -0.4782 C.2     1  UNL1        0.4007
     33 O          -2.3646   -1.7358   -1.1478 O.co2   1  UNL1       -0.2392
     34 OXT        -3.1221    0.3066   -0.4707 O.co2   1  UNL1       -0.2392
@<TRIPOS>BOND
     1     1     2    1
     2     2     3    1
     3     2     4    1
     4     4     5    1
     5     5     6    1
     6     6     7   ar
     7     7     8   ar
     8     8     9   ar
     9     9    10   ar
    10     7    11    1
    11    11    12    1
    12    12    13    1
    13    13    14    2
    14    14    15    1
    15    15    16    1
    16    16    17    1
    17    17    18    1
    18    18    19    2
    19    17    20    1
    20    20    21   am
    21    21    22    2
    22    21    23    1
    23    23    24    1
    24    24    25   ar
    25    25    26   ar
    26    26    27   ar
    27    27    28   ar
    28    27    29    1
    29    16    30    1
    30    30    31    1
    31    14    32    1
    32    32    33   ar
    33    32    34   ar
    34    10     6   ar
    35    31    13    1
    36    18    15   am
    37    28    24   ar
@<TRIPOS>MOLECULE
Cefetamet_Cephalosporins3_Active
 26 28 0 0 0
SMALL
GASTEIGER

@<TRIPOS>ATOM
      1 C          -4.0447    1.1507    2.1221 C.3     1  UNL1        0.0288
      2 C          -3.3931    0.3492    1.0446 C.2     1  UNL1       -0.0129
      3 CA         -3.0824    0.8642   -0.1697 C.2     1  UNL1        0.1279
      4 N          -2.3944    0.0095   -1.0870 N.am    1  UNL1       -0.2421
      5 C          -2.0298   -1.3821   -0.9940 C.3     1  UNL1        0.1570
      6 CA         -0.9963   -1.2655   -2.0001 C.3     1  UNL1        0.2005
      7 C          -1.4386    0.1517   -2.2108 C.2     1  UNL1        0.2526
      8 O          -1.0937    1.0850   -2.9818 O.2     1  UNL1       -0.2726
      9 N           0.3819   -1.3497   -1.4929 N.am    1  UNL1       -0.1900
     10 C           1.0726   -0.4343   -0.6237 C.2     1  UNL1        0.2877
     11 O           0.4921    0.6037   -0.2050 O.2     1  UNL1       -0.2665
     12 C           2.4646   -0.7195   -0.1923 C.2     1  UNL1        0.1921
     13 N           3.2675   -1.4363   -0.9242 N.2     1  UNL1       -0.0766
     14 O           2.9115   -1.9544   -2.1487 O.2     1  UNL1       -0.3729
     15 C           3.8394   -2.7268   -2.8876 C.3     1  UNL1        0.2885
     16 C           2.9723   -0.1866    1.0926 C.ar    1  UNL1        0.1151
     17 C           4.3109   -0.3164    1.4836 C.ar    1  UNL1        0.0591
     18 S           4.4544    0.4019    3.0022 S.2     1  UNL1       -0.0478
     19 C           2.8396    0.8282    3.0845 C.ar    1  UNL1        0.2006
     20 N           2.1613    0.4456    1.9873 N.ar    1  UNL1       -0.2196
     21 N           2.2379    1.5097    4.1782 N.pl3   1  UNL1       -0.0998
     22 S          -1.5519   -1.7364    0.7344 S.3     1  UNL1       -0.1141
     23 C          -3.1611   -1.1116    1.3522 C.3     1  UNL1        0.0826
     24 C          -3.3383    2.2736   -0.5605 C.2     1  UNL1        0.4006
     25 O          -3.6477    3.1488    0.2906 O.co2   1  UNL1       -0.2392
     26 OXT        -3.2341    2.6477   -1.8938 O.co2   1  UNL1       -0.2392
@<TRIPOS>BOND
     1     1     2    1
     2     2     3    2
     3     3     4    1
     4     4     5    1
     5     5     6    1
     6     6     7    1
     7     7     8    2
     8     6     9    1
     9     9    10   am
    10    10    11    2
    11    10    12    1
    12    12    13    2
    13    13    14    1
    14    14    15    1
    15    12    16    1
    16    16    17   ar
    17    17    18   ar
    18    18    19   ar
    19    19    20   ar
    20    19    21    1
    21     5    22    1
    22    22    23    1
    23     3    24    1
    24    24    25   ar
    25    24    26   ar
    26    23     2    1
    27     7     4   am
    28    20    16   ar
@<TRIPOS>MOLECULE
Cefodizime_Cephalosporins3_Active
 37 40 0 0 0
SMALL
GASTEIGER

@<TRIPOS>ATOM
      1 C          -5.1557   -0.8869    1.8967 C.3     1  UNL1        0.0523
      2 C          -4.4770    0.0723    0.9795 C.ar    1  UNL1        0.0630
      3 C          -4.1928   -0.2097   -0.3543 C.ar    1  UNL1        0.0340
      4 S          -3.4696    1.1426   -1.0428 S.2     1  UNL1       -0.0644
      5 C          -3.5178    2.0113    0.3970 C.ar    1  UNL1        0.1360
      6 N          -4.0960    1.3097    1.3956 N.ar    1  UNL1       -0.2367
      7 S          -2.9274    3.6890    0.5784 S.3     1  UNL1       -0.0839
      8 C          -1.3768    3.2170    1.4248 C.3     1  UNL1        0.0884
      9 C          -0.4584    2.4174    0.5500 C.2     1  UNL1       -0.0020
     10 CA          0.1836    2.9159   -0.5209 C.2     1  UNL1        0.1287
     11 N           0.8971    1.9830   -1.3238 N.am    1  UNL1       -0.2421
     12 C           0.6337    0.6060   -1.6542 C.3     1  UNL1        0.1570
     13 CA          2.0325    0.2934   -1.8574 C.3     1  UNL1        0.2005
     14 C           2.3196    1.7522   -1.6527 C.2     1  UNL1        0.2526
     15 O           3.3553    2.4664   -1.6740 O.2     1  UNL1       -0.2726
     16 N           2.6080   -0.4570   -0.7455 N.am    1  UNL1       -0.1900
     17 C           2.8620   -1.8620   -0.8215 C.2     1  UNL1        0.2877
     18 O           2.6625   -2.4633   -1.9128 O.2     1  UNL1       -0.2665
     19 C           3.3454   -2.6158    0.3746 C.2     1  UNL1        0.1921
     20 N           3.8324   -3.8192    0.2566 N.2     1  UNL1       -0.0766
     21 O           3.9772   -4.4697   -0.9500 O.2     1  UNL1       -0.3729
     22 C           4.5161   -5.7808   -0.9907 C.3     1  UNL1        0.2885
     23 C           3.2610   -2.0488    1.7453 C.ar    1  UNL1        0.1151
     24 C           2.7995   -0.7552    2.0375 C.ar    1  UNL1        0.0591
     25 S           2.8796   -0.5579    3.7099 S.2     1  UNL1       -0.0478
     26 C           3.4724   -2.1022    3.9765 C.ar    1  UNL1        0.2006
     27 N           3.6280   -2.7916    2.8294 N.ar    1  UNL1       -0.2196
     28 N           3.8020   -2.6313    5.2560 N.pl3   1  UNL1       -0.0998
     29 S          -0.2797   -0.2591   -0.2996 S.3     1  UNL1       -0.1141
     30 C          -0.1253    1.0228    1.0092 C.3     1  UNL1        0.0835
     31 C           0.1944    4.3446   -0.9045 C.2     1  UNL1        0.4007
     32 O           0.6093    4.6768   -2.0470 O.co2   1  UNL1       -0.2392
     33 OXT        -0.2118    5.3386   -0.0216 O.co2   1  UNL1       -0.2392
     34 C          -4.5326   -1.4616   -1.0915 C.3     1  UNL1        0.1481
     35 C          -5.9229   -1.3821   -1.6225 C.2     1  UNL1        0.3698
     36 O          -6.1551   -0.7647   -2.6971 O.co2   1  UNL1       -0.2453
     37 O          -6.9727   -1.9402   -0.9020 O.co2   1  UNL1       -0.2453
@<TRIPOS>BOND
     1     1     2    1
     2     2     3   ar
     3     3     4   ar
     4     4     5   ar
     5     5     6   ar
     6     5     7    1
     7     7     8    1
     8     8     9    1
     9     9    10    2
    10    10    11    1
    11    11    12    1
    12    12    13    1
    13    13    14    1
    14    14    15    2
    15    13    16    1
    16    16    17   am
    17    17    18    2
    18    17    19    1
    19    19    20    2
    20    20    21    1
    21    21    22    1
    22    19    23    1
    23    23    24   ar
    24    24    25   ar
    25    25    26   ar
    26    26    27   ar
    27    26    28    1
    28    12    29    1
    29    29    30    1
    30    10    31    1
    31    31    32   ar
    32    31    33   ar
    33     3    34    1
    34    34    35    1
    35    35    36   ar
    36    35    37   ar
    37     6     2   ar
    38    30     9    1
    39    14    11   am
    40    27    23   ar
@<TRIPOS>MOLECULE
Cefpimizole_Cephalosporins3_Active
 46 50 0 0 0
SMALL
GASTEIGER

@<TRIPOS>ATOM
      1 C           1.5233   -1.0727   -1.4052 C.3     1  UNL1        0.0895
      2 C           2.5360   -0.0261   -1.7832 C.2     1  UNL1        0.0643
      3 CA          2.4153    1.2069   -1.2611 C.2     1  UNL1        0.1344
      4 N           1.5113    1.3485   -0.1711 N.am    1  UNL1       -0.2419
      5 C           1.1690    0.4508    0.9039 C.3     1  UNL1        0.1570
      6 S           1.3963   -1.3177    0.4096 S.3     1  UNL1       -0.1139
      7 CA         -0.1765    0.9654    1.0245 C.3     1  UNL1        0.2002
      8 C           0.2018    2.0074    0.0123 C.2     1  UNL1        0.2526
      9 O          -0.3812    2.9903   -0.5151 O.2     1  UNL1       -0.2726
     10 N          -1.1728    0.0695    0.4450 N.am    1  UNL1       -0.1934
     11 C          -2.5651    0.3860    0.4141 C.2     1  UNL1        0.2660
     12 O          -2.9835    1.4571    0.9319 O.2     1  UNL1       -0.2711
     13 CA         -3.5149   -0.5656   -0.2611 C.3     1  UNL1        0.1953
     14 C          -3.5367   -1.9430    0.3352 C.ar    1  UNL1        0.0062
     15 C          -3.6033   -3.0482   -0.5204 C.ar    1  UNL1       -0.0021
     16 C          -3.6419   -4.3444    0.0022 C.ar    1  UNL1       -0.0003
     17 C          -3.6177   -4.5414    1.3856 C.ar    1  UNL1       -0.0000
     18 C          -3.5545   -3.4423    2.2474 C.ar    1  UNL1       -0.0003
     19 C          -3.5160   -2.1463    1.7245 C.ar    1  UNL1       -0.0021
     20 N          -4.8600   -0.0179   -0.4429 N.am    1  UNL1       -0.1881
     21 C          -5.7741    0.3208    0.6066 C.2     1  UNL1        0.2850
     22 O          -5.4612    0.1224    1.8099 O.2     1  UNL1       -0.2666
     23 C          -7.1116    0.8484    0.2905 C.ar    1  UNL1        0.1620
     24 CA         -7.5290    1.5305   -0.8409 C.ar    1  UNL1        0.1846
     25 N          -8.8528    1.7485   -0.7494 N.ar    1  UNL1       -0.2156
     26 C          -9.2121    1.2049    0.4331 C.ar    1  UNL1        0.1993
     27 N          -8.1724    0.6513    1.0926 N.ar    1  UNL1       -0.2175
     28 C          -6.7156    2.0642   -1.9469 C.2     1  UNL1        0.4068
     29 O          -7.2726    2.3934   -3.0272 O.co2   1  UNL1       -0.2388
     30 OXT        -5.3524    2.2792   -1.7955 O.co2   1  UNL1       -0.2388
     31 C           3.1522    2.3941   -1.7429 C.2     1  UNL1        0.4009
     32 O           3.1923    3.4317   -1.0309 O.co2   1  UNL1       -0.2392
     33 OXT         3.7575    2.4111   -2.9940 O.co2   1  UNL1       -0.2392
     34 C           3.5832   -0.4058   -2.7872 C.3     1  UNL1        0.3482
     35 N           4.8631   -0.6371   -2.1305 N.ar    1  UNL1       -0.1557
     36 C           5.0345   -1.7500   -1.3612 C.ar    1  UNL1        0.2901
     37 C           6.2518   -1.9827   -0.7194 C.ar    1  UNL1        0.0716
     38 C           7.2922   -1.0644   -0.8754 C.ar    1  UNL1       -0.0083
     39 C           7.1049    0.0645   -1.6777 C.ar    1  UNL1        0.0716
     40 C           5.8718    0.2606   -2.3017 C.ar    1  UNL1        0.2901
     41 C           8.5944   -1.2914   -0.1791 C.3     1  UNL1        0.0499
     42 C           8.8288   -0.2667    0.9242 C.3     1  UNL1        0.1304
     43 S           7.7906   -0.5791    2.3406 S.3     1  UNL1       -0.1067
     44 O           6.3668   -0.2231    2.0189 O.2     1  UNL1       -0.3714
     45 O           8.2602    0.2600    3.4933 O.2     1  UNL1       -0.3714
     46 O           7.8806   -2.2015    2.7642 O.co2   1  UNL1       -0.2908
@<TRIPOS>UNITY_ATOM_ATTR
35 1
charge 1
46 1
charge -1
@<TRIPOS>BOND
     1     1     2    1
     2     2     3    2
     3     3     4    1
     4     4     5    1
     5     5     6    1
     6     5     7    1
     7     7     8    1
     8     8     9    2
     9     7    10    1
    10    10    11   am
    11    11    12    2
    12    11    13    1
    13    13    14    1
    14    14    15   ar
    15    15    16   ar
    16    16    17   ar
    17    17    18   ar
    18    18    19   ar
    19    13    20    1
    20    20    21   am
    21    21    22    2
    22    21    23    1
    23    23    24   ar
    24    24    25   ar
    25    25    26   ar
    26    26    27   ar
    27    24    28    1
    28    28    29   ar
    29    28    30   ar
    30     3    31    1
    31    31    32   ar
    32    31    33   ar
    33     2    34    1
    34    34    35    1
    35    35    36   ar
    36    36    37   ar
    37    37    38   ar
    38    38    39   ar
    39    39    40   ar
    40    38    41    1
    41    41    42    1
    42    42    43    1
    43    43    44    2
    44    43    45    2
    45    43    46    1
    46     6     1    1
    47     8     4   am
    48    19    14   ar
    49    27    23   ar
    50    40    35   ar
@<TRIPOS>MOLECULE
Cefsulodin_Cephalosporins3_Active
 36 39 0 0 0
SMALL
GASTEIGER

@<TRIPOS>ATOM
      1 C           2.0944   -0.7765    2.1075 C.3     1  UNL1        0.0893
      2 C           2.4057   -1.7335    0.9760 C.2     1  UNL1        0.0589
      3 CA          1.4497   -2.0870    0.0840 C.2     1  UNL1        0.0680
      4 N           0.1213   -1.6227    0.3307 N.am    1  UNL1       -0.2465
      5 C          -0.3892   -0.6943    1.3062 C.3     1  UNL1        0.1568
      6 S           0.4503   -1.0565    2.8756 S.3     1  UNL1       -0.1139
      7 CA         -1.7173   -1.2274    1.2527 C.3     1  UNL1        0.2002
      8 C          -1.2483   -2.1522    0.1716 C.2     1  UNL1        0.2525
      9 O          -1.7866   -3.0436   -0.5353 O.2     1  UNL1       -0.2726
     10 N          -2.6168   -0.2312    0.6922 N.am    1  UNL1       -0.1933
     11 C          -4.0115   -0.4796    0.4971 C.2     1  UNL1        0.2707
     12 O          -4.5201   -1.5747    0.8563 O.2     1  UNL1       -0.2710
     13 C          -4.8828    0.5573   -0.1390 C.3     1  UNL1        0.2593
     14 C          -5.0079    1.7931    0.7007 C.ar    1  UNL1        0.0108
     15 C          -3.9063    2.6276    0.9477 C.ar    1  UNL1       -0.0021
     16 C          -4.0533    3.7711    1.7379 C.ar    1  UNL1       -0.0003
     17 C          -5.3001    4.0861    2.2855 C.ar    1  UNL1       -0.0000
     18 C          -6.3995    3.2575    2.0435 C.ar    1  UNL1       -0.0003
     19 C          -6.2530    2.1134    1.2532 C.ar    1  UNL1       -0.0021
     20 S          -4.3735    0.9206   -1.8157 S.3     1  UNL1        0.1317
     21 O          -2.9716    1.4624   -1.8301 O.2     1  UNL1       -0.1436
     22 O          -4.4282   -0.3362   -2.6373 O.2     1  UNL1       -0.1436
     23 O          -5.4149    2.0594   -2.4792 O.3     1  UNL1       -0.0461
     24 C           1.6859   -2.9965   -1.0637 C.2     1  UNL1        0.0862
     25 O           0.8241   -3.0815   -1.9774 O.co2   1  UNL1       -0.5433
     26 OXT         2.8320   -3.7777   -1.1520 O.co2   1  UNL1       -0.5433
     27 C           3.8366   -2.1578    0.8374 C.3     1  UNL1        0.3480
     28 N           4.6262   -1.1019    0.2215 N.ar    1  UNL1       -0.1557
     29 C           5.2853   -0.2125    1.0143 C.ar    1  UNL1        0.2905
     30 C           6.0396    0.8153    0.4448 C.ar    1  UNL1        0.0805
     31 C           6.1141    0.9275   -0.9487 C.ar    1  UNL1        0.0689
     32 C           5.4277    0.0026   -1.7437 C.ar    1  UNL1        0.0805
     33 C           4.6841   -1.0109   -1.1360 C.ar    1  UNL1        0.2905
     34 C           6.9039    2.0049   -1.5702 C.2     1  UNL1        0.2846
     35 O           7.5210    2.8367   -0.8528 O.2     1  UNL1       -0.2667
     36 N           6.9791    2.1187   -2.9885 N.am    1  UNL1       -0.0837
@<TRIPOS>UNITY_ATOM_ATTR
26 1
charge -1
28 1
charge 1
@<TRIPOS>BOND
     1     1     2    1
     2     2     3    2
     3     3     4    1
     4     4     5    1
     5     5     6    1
     6     5     7    1
     7     7     8    1
     8     8     9    2
     9     7    10    1
    10    10    11   am
    11    11    12    2
    12    13    11    1
    13    13    14    1
    14    14    15   ar
    15    15    16   ar
    16    16    17   ar
    17    17    18   ar
    18    18    19   ar
    19    13    20    1
    20    20    21    2
    21    20    22    2
    22    20    23    1
    23     3    24    1
    24    24    25   ar
    25    24    26   ar
    26     2    27    1
    27    27    28    1
    28    28    29   ar
    29    29    30   ar
    30    30    31   ar
    31    31    32   ar
    32    32    33   ar
    33    31    34    1
    34    34    35    2
    35    34    36   am
    36     6     1    1
    37     8     4   am
    38    19    14   ar
    39    33    28   ar
@<TRIPOS>MOLECULE
Cefteram_Cephalosporins3_Active
 32 35 0 0 0
SMALL
GASTEIGER

@<TRIPOS>ATOM
      1 C           2.4578    3.7137   -1.8202 C.3     1  UNL1        0.0776
      2 C           2.9822    2.3243   -1.7615 C.ar    1  UNL1        0.1838
      3 N           3.3651    1.7091   -0.6277 N.ar    1  UNL1       -0.1339
      4 N           3.7482    0.5141   -1.0420 N.ar    1  UNL1       -0.1469
      5 N           3.5971    0.3869   -2.3486 N.ar    1  UNL1       -0.0451
      6 N           3.1183    1.5208   -2.8349 N.ar    1  UNL1       -0.1123
      7 C           4.1832   -0.5576   -0.1615 C.3     1  UNL1        0.1757
      8 C           2.9904   -1.2640    0.4005 C.2     1  UNL1        0.0129
      9 CA          2.4444   -0.9496    1.6014 C.2     1  UNL1        0.1298
     10 N           1.1651   -1.5174    1.9045 N.am    1  UNL1       -0.2421
     11 C           0.3551   -2.4666    1.1803 C.3     1  UNL1        0.1570
     12 CA         -0.8669   -2.0501    1.8325 C.3     1  UNL1        0.2005
     13 C          -0.0325   -1.1600    2.7034 C.2     1  UNL1        0.2526
     14 O          -0.2720   -0.3871    3.6673 O.2     1  UNL1       -0.2726
     15 N          -1.7941   -1.2831    0.9858 N.am    1  UNL1       -0.1900
     16 C          -1.6022    0.0163    0.3971 C.2     1  UNL1        0.2877
     17 O          -0.5423    0.6631    0.6163 O.2     1  UNL1       -0.2665
     18 C          -2.6542    0.5955   -0.4779 C.2     1  UNL1        0.1921
     19 N          -2.7894    1.8836   -0.6026 N.2     1  UNL1       -0.0766
     20 O          -2.0024    2.7904    0.0710 O.2     1  UNL1       -0.3729
     21 C          -2.2021    4.1789   -0.1176 C.3     1  UNL1        0.2885
     22 C          -3.5787   -0.2735   -1.2401 C.ar    1  UNL1        0.1151
     23 C          -3.3931   -1.6526   -1.3964 C.ar    1  UNL1        0.0591
     24 S          -4.6567   -2.2188   -2.3578 S.2     1  UNL1       -0.0478
     25 C          -5.3574   -0.7105   -2.5297 C.ar    1  UNL1        0.2006
     26 N          -4.6670    0.2432   -1.8780 N.ar    1  UNL1       -0.2196
     27 N          -6.5378   -0.4482   -3.2784 N.pl3   1  UNL1       -0.0998
     28 S           0.5491   -2.1568   -0.6113 S.3     1  UNL1       -0.1140
     29 C           2.3674   -2.3209   -0.4802 C.3     1  UNL1        0.0846
     30 C           3.0519    0.0147    2.5574 C.2     1  UNL1        0.4007
     31 O           4.1489    0.5833    2.3141 O.co2   1  UNL1       -0.2392
     32 OXT         2.4245    0.2787    3.7671 O.co2   1  UNL1       -0.2392
@<TRIPOS>BOND
     1     1     2    1
     2     2     3   ar
     3     3     4   ar
     4     4     5   ar
     5     5     6   ar
     6     4     7    1
     7     7     8    1
     8     8     9    2
     9     9    10    1
    10    10    11    1
    11    11    12    1
    12    12    13    1
    13    13    14    2
    14    12    15    1
    15    15    16   am
    16    16    17    2
    17    16    18    1
    18    18    19    2
    19    19    20    1
    20    20    21    1
    21    18    22    1
    22    22    23   ar
    23    23    24   ar
    24    24    25   ar
    25    25    26   ar
    26    25    27    1
    27    11    28    1
    28    28    29    1
    29     9    30    1
    30    30    31   ar
    31    30    32   ar
    32     6     2   ar
    33    29     8    1
    34    13    10   am
    35    26    22   ar
@<TRIPOS>MOLECULE
Ceftiolene_Cephalosporins3_Active
 39 42 0 0 0
SMALL
GASTEIGER

@<TRIPOS>ATOM
      1 C          -8.8053   -0.7291    0.3625 C.3     1  UNL1        0.2885
      2 O          -7.4098   -0.8818    0.5440 O.2     1  UNL1       -0.3729
      3 N          -6.5570    0.1509    0.2249 N.2     1  UNL1       -0.0766
      4 C          -5.2662    0.0748    0.3679 C.2     1  UNL1        0.1921
      5 C          -4.4540    1.2436   -0.0380 C.ar    1  UNL1        0.1151
      6 C          -3.1062    1.4038    0.3046 C.ar    1  UNL1        0.0591
      7 S          -2.5999    2.8768   -0.3392 S.2     1  UNL1       -0.0478
      8 C          -4.0941    3.2337   -1.0000 C.ar    1  UNL1        0.2006
      9 N          -4.9979    2.2670   -0.7554 N.ar    1  UNL1       -0.2196
     10 N          -4.3929    4.4174   -1.7296 N.pl3   1  UNL1       -0.0998
     11 C          -4.6248   -1.1485    0.9154 C.2     1  UNL1        0.2877
     12 O          -5.2602   -1.9037    1.7006 O.2     1  UNL1       -0.2665
     13 N          -3.2827   -1.4784    0.5485 N.am    1  UNL1       -0.1900
     14 CA         -2.5695   -2.6209    1.1087 C.3     1  UNL1        0.2005
     15 C          -1.2237   -2.7430    0.5966 C.3     1  UNL1        0.1570
     16 N          -0.6190   -2.2567    1.8122 N.am    1  UNL1       -0.2419
     17 C          -1.9642   -2.2333    2.4254 C.2     1  UNL1        0.2526
     18 O          -2.4187   -1.9382    3.5614 O.2     1  UNL1       -0.2726
     19 CA          0.5724   -1.5109    2.0383 C.2     1  UNL1        0.1319
     20 C           0.8883   -0.5761    1.1188 C.2     1  UNL1        0.0095
     21 C          -0.1304   -0.2400    0.0550 C.3     1  UNL1        0.0869
     22 S          -0.7389   -1.7116   -0.8579 S.3     1  UNL1       -0.1138
     23 C           2.1326    0.2113    1.1924 C.2     1  UNL1        0.0051
     24 C           2.4304    1.1629    0.3161 C.2     1  UNL1        0.0381
     25 S           3.9632    2.0699    0.4635 S.3     1  UNL1       -0.0481
     26 C           4.8414    0.9189   -0.6032 C.ar    1  UNL1        0.1990
     27 N           5.4656   -0.1455   -0.0351 N.ar    1  UNL1       -0.1200
     28 N           6.1252   -1.0343   -0.7760 N.ar    1  UNL1       -0.0995
     29 C           6.1951   -0.9052   -2.1226 C.ar    1  UNL1        0.3531
     30 O           6.8233   -1.7579   -2.8047 O.2     1  UNL1       -0.2583
     31 C           5.5632    0.1815   -2.7323 C.ar    1  UNL1        0.3223
     32 O           5.6170    0.3186   -3.9865 O.2     1  UNL1       -0.2615
     33 N           4.8898    1.0878   -1.9610 N.ar    1  UNL1       -0.2623
     34 C           4.2350    2.2346   -2.5897 C.3     1  UNL1        0.1833
     35 C           5.1876    3.3796   -2.6934 C.2     1  UNL1        0.2322
     36 O           4.8227    4.4331   -3.1871 O.2     1  UNL1       -0.2861
     37 C           1.3762   -1.8231    3.2442 C.2     1  UNL1        0.4009
     38 O           2.4124   -1.1708    3.5390 O.co2   1  UNL1       -0.2392
     39 OXT         0.9739   -2.8572    4.0804 O.co2   1  UNL1       -0.2392
@<TRIPOS>BOND
     1     1     2    1
     2     2     3    1
     3     3     4    2
     4     4     5    1
     5     5     6   ar
     6     6     7   ar
     7     7     8   ar
     8     8     9   ar
     9     8    10    1
    10     4    11    1
    11    11    12    2
    12    11    13   am
    13    14    13    1
    14    14    15    1
    15    15    16    1
    16    16    17   am
    17    17    18    2
    18    16    19    1
    19    19    20    2
    20    20    21    1
    21    21    22    1
    22    20    23    1
    23    23    24    2
    24    24    25    1
    25    25    26    1
    26    26    27   ar
    27    27    28   ar
    28    28    29   ar
    29    29    30    2
    30    29    31   ar
    31    31    32    2
    32    31    33   ar
    33    33    34    1
    34    34    35    1
    35    35    36    2
    36    19    37    1
    37    37    38   ar
    38    37    39   ar
    39     9     5   ar
    40    17    14    1
    41    15    22    1
    42    33    26   ar
@<TRIPOS>MOLECULE
Flomoxef_Cephalosporins3_Active
 32 34 0 0 0
SMALL
GASTEIGER

@<TRIPOS>ATOM
      1 C          -1.5605    2.1047   -4.3716 C.3     1  UNL1        0.1766
      2 O          -2.6409    1.6980   -3.5637 O.3     1  UNL1       -0.3272
      3 C          -2.2041    1.0153   -2.3936 C.3     1  UNL1        0.2850
      4 C          -1.1938    1.7184   -1.6184 C.3     1  UNL1        0.2531
      5 N          -0.2428    0.6345   -1.7549 N.am    1  UNL1       -0.2232
      6 C          -1.2005   -0.0806   -2.6336 C.2     1  UNL1        0.2799
      7 O          -1.2003   -1.1741   -3.2570 O.2     1  UNL1       -0.2699
      8 C           0.7614    0.2852   -0.8125 C.2     1  UNL1        0.1315
      9 C           0.7422    1.0188    0.3208 C.2     1  UNL1        0.0167
     10 C          -0.2621    2.1609    0.4206 C.3     1  UNL1        0.1687
     11 O          -1.4866    1.8728   -0.2427 O.3     1  UNL1       -0.3291
     12 C           1.6760    0.8032    1.4667 C.3     1  UNL1        0.0910
     13 S           3.2717    1.6076    1.1333 S.3     1  UNL1       -0.0696
     14 C           3.9704    1.0160    2.6715 C.ar    1  UNL1        0.2110
     15 N           3.9139    1.6809    3.8394 N.ar    1  UNL1       -0.1015
     16 N           4.5614    0.9083    4.7039 N.ar    1  UNL1       -0.0221
     17 N           5.0028   -0.1852    4.0974 N.ar    1  UNL1       -0.0424
     18 N           4.6363   -0.1372    2.8305 N.ar    1  UNL1       -0.2057
     19 C           4.9742   -1.1296    1.8236 C.3     1  UNL1        0.1668
     20 C           6.3042   -0.7826    1.1842 C.3     1  UNL1        0.2085
     21 O           6.6076   -1.7244    0.2023 O.3     1  UNL1       -0.2182
     22 C           1.6452   -0.8745   -1.0671 C.2     1  UNL1        0.4007
     23 O           2.3748   -1.3565   -0.1612 O.co2   1  UNL1       -0.2392
     24 O           1.6658   -1.4568   -2.3278 O.co2   1  UNL1       -0.2392
     25 N          -3.3669    0.5560   -1.6207 N.am    1  UNL1       -0.1690
     26 C          -3.3812   -0.3614   -0.5165 C.2     1  UNL1        0.2549
     27 O          -2.3220   -0.9026   -0.1025 O.2     1  UNL1       -0.2723
     28 C          -4.6762   -0.7055    0.1262 C.3     1  UNL1        0.1493
     29 S          -5.3782   -2.1867   -0.6621 S.3     1  UNL1       -0.0613
     30 C          -6.8690   -2.1927    0.3833 C.3     1  UNL1        0.3672
     31 F          -7.6000   -1.0359    0.1858 F       1  UNL1       -0.1856
     32 F          -6.5228   -2.3120    1.7167 F       1  UNL1       -0.1856
@<TRIPOS>BOND
     1     1     2    1
     2     2     3    1
     3     3     4    1
     4     4     5    1
     5     5     6   am
     6     6     7    2
     7     5     8    1
     8     8     9    2
     9     9    10    1
    10    10    11    1
    11     9    12    1
    12    12    13    1
    13    13    14    1
    14    14    15   ar
    15    15    16   ar
    16    16    17   ar
    17    17    18   ar
    18    18    19    1
    19    19    20    1
    20    20    21    1
    21     8    22    1
    22    22    23   ar
    23    22    24   ar
    24     3    25    1
    25    25    26   am
    26    26    27    2
    27    26    28    1
    28    28    29    1
    29    29    30    1
    30    30    31    1
    31    30    32    1
    32     6     3    1
    33     4    11    1
    34    18    14   ar
@<TRIPOS>MOLECULE
Latamoxef_Cephalosporins3_Active
 36 39 0 0 0
SMALL
GASTEIGER

@<TRIPOS>ATOM
      1 C           3.3719    4.7062   -1.0999 C.3     1  UNL1        0.1578
      2 N           3.7252    4.4078    0.2772 N.ar    1  UNL1       -0.2064
      3 C           4.0130    3.2169    0.8224 C.ar    1  UNL1        0.2110
      4 N           4.3103    3.3656    2.1258 N.ar    1  UNL1       -0.1015
      5 N           4.1979    4.6692    2.3541 N.ar    1  UNL1       -0.0221
      6 N           3.8481    5.3007    1.2405 N.ar    1  UNL1       -0.0425
      7 S           3.9980    1.6482   -0.0398 S.3     1  UNL1       -0.0696
      8 C           2.2717    1.3333    0.4230 C.3     1  UNL1        0.0910
      9 C           1.8103    0.0322   -0.1431 C.2     1  UNL1        0.0167
     10 C           1.5074   -1.0395    0.6170 C.2     1  UNL1        0.1315
     11 N           0.9502   -2.1318   -0.1044 N.am    1  UNL1       -0.2232
     12 C           0.7357   -2.1925   -1.5322 C.3     1  UNL1        0.2531
     13 C          -0.4565   -3.0048   -1.3987 C.3     1  UNL1        0.2850
     14 C          -0.1600   -3.0868    0.0820 C.2     1  UNL1        0.2799
     15 O          -0.6700   -3.6760    1.0719 O.2     1  UNL1       -0.2699
     16 N          -1.6731   -2.2560   -1.7490 N.am    1  UNL1       -0.1690
     17 C          -2.8151   -2.0887   -0.9051 C.2     1  UNL1        0.2584
     18 O          -3.1752   -3.0108   -0.1240 O.2     1  UNL1       -0.2723
     19 C          -3.5087   -0.7583   -0.9012 C.3     1  UNL1        0.2032
     20 C          -2.6839    0.2745   -0.1903 C.ar    1  UNL1       -0.0028
     21 C          -2.1796    1.3600   -0.9163 C.ar    1  UNL1        0.0000
     22 C          -1.3729    2.3130   -0.2877 C.ar    1  UNL1        0.0417
     23 C          -1.0610    2.1798    1.0691 C.ar    1  UNL1        0.1957
     24 C          -1.5540    1.0928    1.7984 C.ar    1  UNL1        0.0417
     25 C          -2.3626    0.1419    1.1711 C.ar    1  UNL1        0.0000
     26 O          -0.2649    3.1310    1.6930 O.3     1  UNL1       -0.2866
     27 C          -4.9270   -0.8122   -0.4120 C.2     1  UNL1        0.3771
     28 O          -5.1850   -1.0982    0.7886 O.co2   1  UNL1       -0.2448
     29 O          -5.9680   -0.5653   -1.2991 O.co2   1  UNL1       -0.2448
     30 O          -0.3158   -4.2193   -2.1010 O.3     1  UNL1       -0.3272
     31 C          -1.3790   -5.0622   -1.7472 C.3     1  UNL1        0.1766
     32 O           0.4988   -0.8735   -1.9949 O.3     1  UNL1       -0.3291
     33 C           1.6352   -0.0911   -1.6514 C.3     1  UNL1        0.1687
     34 C           1.5850   -1.0845    2.0953 C.2     1  UNL1        0.4007
     35 O           1.3996   -2.1751    2.6954 O.co2   1  UNL1       -0.2392
     36 O           1.8540    0.0534    2.8458 O.co2   1  UNL1       -0.2392
@<TRIPOS>BOND
     1     1     2    1
     2     2     3   ar
     3     3     4   ar
     4     4     5   ar
     5     5     6   ar
     6     3     7    1
     7     7     8    1
     8     8     9    1
     9     9    10    2
    10    10    11    1
    11    11    12    1
    12    12    13    1
    13    13    14    1
    14    14    15    2
    15    13    16    1
    16    16    17   am
    17    17    18    2
    18    17    19    1
    19    19    20    1
    20    20    21   ar
    21    21    22   ar
    22    22    23   ar
    23    23    24   ar
    24    24    25   ar
    25    23    26    1
    26    19    27    1
    27    27    28   ar
    28    27    29   ar
    29    13    30    1
    30    30    31    1
    31    12    32    1
    32    32    33    1
    33    10    34    1
    34    34    35   ar
    35    34    36   ar
    36     6     2   ar
    37    33     9    1
    38    14    11   am
    39    25    20   ar
@<TRIPOS>MOLECULE
Cefepime_Cephalosporins4_Active
 32 35 0 0 0
SMALL
GASTEIGER

@<TRIPOS>ATOM
      1 C           4.7904    2.7000    1.0647 C.3     1  UNL1        0.1708
      2 N           3.5322    2.0327    0.7799 N.4     1  UNL1        0.3047
      3 C           2.5802    3.0332    0.3076 C.3     1  UNL1        0.1093
      4 C           1.5473    3.2362    1.3959 C.3     1  UNL1        0.0671
      5 C           1.6143    1.9816    2.2260 C.3     1  UNL1        0.0671
      6 C           3.0235    1.4659    2.0276 C.3     1  UNL1        0.1093
      7 C           3.7866    1.0056   -0.2410 C.3     1  UNL1        0.1340
      8 C           2.6269    0.0689   -0.4861 C.2     1  UNL1        0.0362
      9 CA          2.6359   -1.2214   -0.0989 C.2     1  UNL1        0.0669
     10 N           1.5276   -2.0147   -0.5066 N.am    1  UNL1       -0.2465
     11 C           0.7794   -2.0367   -1.7394 C.3     1  UNL1        0.1568
     12 CA         -0.4480   -2.4412   -1.0919 C.3     1  UNL1        0.2005
     13 C           0.3320   -2.5388    0.1861 C.2     1  UNL1        0.2525
     14 O           0.0625   -2.8642    1.3717 O.2     1  UNL1       -0.2726
     15 N          -1.4207   -1.3572   -0.9935 N.am    1  UNL1       -0.1900
     16 C          -2.6805   -1.5108   -0.3331 C.2     1  UNL1        0.2877
     17 O          -2.9674   -2.6204    0.1932 O.2     1  UNL1       -0.2665
     18 C          -3.6450   -0.3761   -0.2705 C.2     1  UNL1        0.1921
     19 N          -4.8912   -0.5667    0.0582 N.2     1  UNL1       -0.0766
     20 O          -5.4195   -1.8029    0.3542 O.2     1  UNL1       -0.3729
     21 C          -6.7860   -1.9236    0.7030 C.3     1  UNL1        0.2885
     22 C          -3.2199    1.0097   -0.5863 C.ar    1  UNL1        0.1151
     23 C          -4.1319    2.0708   -0.6563 C.ar    1  UNL1        0.0591
     24 S          -3.2527    3.4604   -1.0257 S.2     1  UNL1       -0.0478
     25 C          -1.7858    2.6606   -1.0726 C.ar    1  UNL1        0.2006
     26 N          -1.9192    1.3464   -0.8147 N.ar    1  UNL1       -0.2196
     27 N          -0.5387    3.2803   -1.3599 N.pl3   1  UNL1       -0.0998
     28 S           0.8318   -0.3919   -2.5826 S.3     1  UNL1       -0.1139
     29 C           1.3889    0.6138   -1.1511 C.3     1  UNL1        0.0882
     30 C           3.7134   -1.8646    0.6880 C.2     1  UNL1        0.0862
     31 O           4.7138   -1.2176    1.0955 O.co2   1  UNL1       -0.5433
     32 OXT         3.6195   -3.2173    0.9909 O.co2   1  UNL1       -0.5433
@<TRIPOS>UNITY_ATOM_ATTR
2 1
charge 1
32 1
charge -1
@<TRIPOS>BOND
     1     1     2    1
     2     2     3    1
     3     3     4    1
     4     4     5    1
     5     5     6    1
     6     2     7    1
     7     7     8    1
     8     8     9    2
     9     9    10    1
    10    10    11    1
    11    11    12    1
    12    12    13    1
    13    13    14    2
    14    12    15    1
    15    15    16   am
    16    16    17    2
    17    16    18    1
    18    18    19    2
    19    19    20    1
    20    20    21    1
    21    18    22    1
    22    22    23   ar
    23    23    24   ar
    24    24    25   ar
    25    25    26   ar
    26    25    27    1
    27    11    28    1
    28    28    29    1
    29     9    30    1
    30    30    31   ar
    31    30    32   ar
    32     6     2    1
    33    29     8    1
    34    13    10   am
    35    26    22   ar
@<TRIPOS>MOLECULE
Cefozopran_Cephalosporins4_Active
 35 39 0 0 0
SMALL
GASTEIGER

@<TRIPOS>ATOM
      1 C          -2.5953   -6.0221    0.3167 C.3     1  UNL1        0.2885
      2 O          -2.5549   -4.6560    0.6833 O.2     1  UNL1       -0.3729
      3 N          -3.3651   -3.7463    0.0427 N.2     1  UNL1       -0.0750
      4 C          -3.3700   -2.4764    0.3259 C.2     1  UNL1        0.2102
      5 C          -4.2635   -1.5944   -0.4558 C.ar    1  UNL1        0.1971
      6 N          -4.9501   -2.0671   -1.5376 N.ar    1  UNL1       -0.1853
      7 S          -5.8337   -0.7762   -2.1007 S.2     1  UNL1        0.0526
      8 C          -5.3238    0.3157   -0.9651 C.ar    1  UNL1        0.2193
      9 N          -4.4614   -0.2794   -0.1203 N.ar    1  UNL1       -0.1993
     10 N          -5.7271    1.6764   -0.8723 N.pl3   1  UNL1       -0.0982
     11 C          -2.4963   -1.9202    1.3914 C.2     1  UNL1        0.2893
     12 O          -2.0779   -2.6587    2.3241 O.2     1  UNL1       -0.2665
     13 N          -2.1169   -0.5415    1.3597 N.am    1  UNL1       -0.1899
     14 CA         -1.2279    0.0541    2.3506 C.3     1  UNL1        0.2005
     15 C           0.1648    0.0151    1.9614 C.3     1  UNL1        0.1568
     16 N           0.2046    1.4198    1.6330 N.am    1  UNL1       -0.2465
     17 C          -1.1804    1.5371    2.1368 C.2     1  UNL1        0.2525
     18 O          -2.0037    2.4807    2.2631 O.2     1  UNL1       -0.2726
     19 CA          0.9539    2.1339    0.6549 C.2     1  UNL1        0.0680
     20 C           1.1891    1.4971   -0.5063 C.2     1  UNL1        0.0590
     21 C           0.4410    0.2265   -0.7995 C.3     1  UNL1        0.0893
     22 S           0.6569   -1.0319    0.5176 S.3     1  UNL1       -0.1139
     23 C           2.1147    2.0148   -1.5629 C.3     1  UNL1        0.3492
     24 N           3.4952    1.6908   -1.2264 N.ar    1  UNL1       -0.1429
     25 C           4.1272    0.5182   -1.3852 C.ar    1  UNL1        0.3172
     26 C           3.6230   -0.6575   -1.9331 C.ar    1  UNL1        0.0929
     27 C           4.4934   -1.7560   -1.9850 C.ar    1  UNL1        0.0303
     28 C           5.8079   -1.6364   -1.4935 C.ar    1  UNL1        0.1210
     29 N           6.2286   -0.4497   -0.9696 N.ar    1  UNL1       -0.1587
     30 N           5.3824    0.5770   -0.9356 N.ar    1  UNL1       -0.1660
     31 C           5.5953    1.8159   -0.4617 C.ar    1  UNL1        0.1817
     32 C           4.3993    2.5175   -0.6461 C.ar    1  UNL1        0.3126
     33 C           1.4199    3.5021    0.9685 C.2     1  UNL1        0.0862
     34 O           1.3286    3.9334    2.1469 O.co2   1  UNL1       -0.5433
     35 OXT         1.9218    4.3436   -0.0166 O.co2   1  UNL1       -0.5433
@<TRIPOS>UNITY_ATOM_ATTR
24 1
charge 1
35 1
charge -1
@<TRIPOS>BOND
     1     1     2    1
     2     2     3    1
     3     3     4    2
     4     4     5    1
     5     5     6   ar
     6     6     7   ar
     7     7     8   ar
     8     8     9   ar
     9     8    10    1
    10     4    11    1
    11    11    12    2
    12    11    13   am
    13    14    13    1
    14    14    15    1
    15    15    16    1
    16    16    17   am
    17    17    18    2
    18    16    19    1
    19    19    20    2
    20    20    21    1
    21    21    22    1
    22    20    23    1
    23    23    24    1
    24    24    25   ar
    25    25    26   ar
    26    26    27   ar
    27    27    28   ar
    28    28    29   ar
    29    29    30   ar
    30    30    31   ar
    31    31    32   ar
    32    19    33    1
    33    33    34   ar
    34    33    35   ar
    35     9     5   ar
    36    17    14    1
    37    15    22    1
    38    32    24   ar
    39    30    25   ar
@<TRIPOS>MOLECULE
Cefpirome_Cephalosporins4_Active
 35 39 0 0 0
SMALL
GASTEIGER

@<TRIPOS>ATOM
      1 C           2.4626   -3.4411   -0.4536 C.3     1  UNL1        0.2885
      2 O           2.6572   -2.0500   -0.6279 O.2     1  UNL1       -0.3729
      3 N           3.4857   -1.3578    0.2261 N.2     1  UNL1       -0.0766
      4 C           3.7044   -0.0784    0.1307 C.2     1  UNL1        0.1921
      5 C           4.6460    0.5321    1.0978 C.ar    1  UNL1        0.1151
      6 C           4.8370    1.9133    1.2279 C.ar    1  UNL1        0.0591
      7 S           5.9686    2.1458    2.4557 S.2     1  UNL1       -0.0478
      8 C           6.1505    0.5114    2.7577 C.ar    1  UNL1        0.2006
      9 N           5.3747   -0.2389    1.9541 N.ar    1  UNL1       -0.2196
     10 N           7.0136   -0.0367    3.7464 N.pl3   1  UNL1       -0.0998
     11 C           3.0364    0.7445   -0.9137 C.2     1  UNL1        0.2877
     12 O           3.5561    1.8295   -1.2917 O.2     1  UNL1       -0.2665
     13 N           1.7991    0.3190   -1.4912 N.am    1  UNL1       -0.1900
     14 CA          1.0762    1.1109   -2.4810 C.3     1  UNL1        0.2005
     15 C          -0.1514    0.4832   -2.9187 C.3     1  UNL1        0.1568
     16 N          -0.9864    1.4004   -2.1850 N.am    1  UNL1       -0.2465
     17 C           0.2342    2.1374   -1.7855 C.2     1  UNL1        0.2525
     18 O           0.4764    3.1648   -1.0999 O.2     1  UNL1       -0.2726
     19 CA         -2.3450    1.2894   -1.7450 C.2     1  UNL1        0.0680
     20 C          -2.9527    0.0902   -1.9150 C.2     1  UNL1        0.0589
     21 C          -2.2889   -0.9997   -2.7260 C.3     1  UNL1        0.0893
     22 S          -0.5157   -1.2062   -2.3178 S.3     1  UNL1       -0.1139
     23 C          -4.2873   -0.2351   -1.3123 C.3     1  UNL1        0.3476
     24 N          -4.1706   -1.3399   -0.3665 N.ar    1  UNL1       -0.1647
     25 C          -4.5386   -2.5921   -0.7692 C.ar    1  UNL1        0.2900
     26 C          -4.4233   -3.6868    0.1040 C.ar    1  UNL1        0.0755
     27 C          -3.9241   -3.4883    1.3971 C.ar    1  UNL1        0.0076
     28 C          -3.5590   -2.1983    1.7717 C.ar    1  UNL1        0.0370
     29 C          -3.6868   -1.1537    0.8973 C.ar    1  UNL1        0.1993
     30 C          -3.2424    0.1268    1.4944 C.3     1  UNL1        0.0968
     31 C          -2.7893   -0.2654    2.9081 C.3     1  UNL1        0.0159
     32 C          -3.0115   -1.7759    3.0758 C.3     1  UNL1        0.0326
     33 C          -2.9791    2.4419   -1.0522 C.2     1  UNL1        0.0862
     34 O          -2.3090    3.4821   -0.8241 O.co2   1  UNL1       -0.5433
     35 OXT        -4.3175    2.4216   -0.6777 O.co2   1  UNL1       -0.5433
@<TRIPOS>UNITY_ATOM_ATTR
24 1
charge 1
35 1
charge -1
@<TRIPOS>BOND
     1     1     2    1
     2     2     3    1
     3     3     4    2
     4     4     5    1
     5     5     6   ar
     6     6     7   ar
     7     7     8   ar
     8     8     9   ar
     9     8    10    1
    10     4    11    1
    11    11    12    2
    12    11    13   am
    13    14    13    1
    14    14    15    1
    15    15    16    1
    16    16    17   am
    17    17    18    2
    18    16    19    1
    19    19    20    2
    20    20    21    1
    21    21    22    1
    22    20    23    1
    23    23    24    1
    24    24    25   ar
    25    25    26   ar
    26    26    27   ar
    27    27    28   ar
    28    28    29   ar
    29    29    30    1
    30    30    31    1
    31    31    32    1
    32    19    33    1
    33    33    34   ar
    34    33    35   ar
    35     9     5   ar
    36    17    14    1
    37    15    22    1
    38    29    24   ar
    39    32    28    1
@<TRIPOS>MOLECULE
Cefquinome_Cephalosporins4_Active
 36 40 0 0 0
SMALL
GASTEIGER

@<TRIPOS>ATOM
      1 C          -1.3119   -3.0068    5.5965 C.3     1  UNL1        0.2885
      2 O          -0.4130   -2.6833    4.5520 O.2     1  UNL1       -0.3729
      3 N           0.2624   -1.4840    4.5718 N.2     1  UNL1       -0.0766
      4 C           1.1019   -1.1249    3.6446 C.2     1  UNL1        0.1921
      5 C           1.7351    0.2085    3.7673 C.ar    1  UNL1        0.1151
      6 C           2.8073    0.6347    2.9736 C.ar    1  UNL1        0.0591
      7 S           3.2132    2.1909    3.4784 S.2     1  UNL1       -0.0478
      8 C           2.0333    2.2408    4.6620 C.ar    1  UNL1        0.2006
      9 N           1.3153    1.1036    4.7061 N.ar    1  UNL1       -0.2196
     10 N           1.8058    3.3441    5.5303 N.pl3   1  UNL1       -0.0998
     11 C           1.4037   -2.0184    2.4945 C.2     1  UNL1        0.2877
     12 O           1.2480   -3.2656    2.5988 O.2     1  UNL1       -0.2665
     13 N           1.8620   -1.4674    1.2567 N.am    1  UNL1       -0.1900
     14 CA          2.1309   -2.2896    0.0821 C.3     1  UNL1        0.2005
     15 C           0.9869   -2.4343   -0.7940 C.3     1  UNL1        0.1568
     16 N           1.5349   -1.5576   -1.7977 N.am    1  UNL1       -0.2465
     17 C           2.7638   -1.4444   -0.9791 C.2     1  UNL1        0.2525
     18 O           3.8651   -0.8459   -1.0937 O.2     1  UNL1       -0.2726
     19 CA          0.9020   -0.8410   -2.8643 C.2     1  UNL1        0.0680
     20 C          -0.4519   -0.8647   -2.9069 C.2     1  UNL1        0.0589
     21 C          -1.2375   -1.7621   -1.9791 C.3     1  UNL1        0.0893
     22 S          -0.6131   -1.7270   -0.2577 S.3     1  UNL1       -0.1139
     23 C          -1.2512    0.0297   -3.8060 C.3     1  UNL1        0.3476
     24 N          -1.6915    1.2185   -3.0806 N.ar    1  UNL1       -0.1647
     25 C          -0.8206    2.2620   -2.9838 C.ar    1  UNL1        0.2900
     26 C          -1.1683    3.4197   -2.2906 C.ar    1  UNL1        0.0755
     27 C          -2.4220    3.5037   -1.6925 C.ar    1  UNL1        0.0076
     28 C          -3.3209    2.4440   -1.8006 C.ar    1  UNL1        0.0370
     29 C          -2.9321    1.2760   -2.4971 C.ar    1  UNL1        0.1992
     30 C          -3.9190    0.1467   -2.6914 C.3     1  UNL1        0.0964
     31 C          -5.0256    0.1498   -1.6429 C.3     1  UNL1        0.0114
     32 C          -5.6564    1.5316   -1.5830 C.3     1  UNL1        0.0054
     33 C          -4.6318    2.5384   -1.0707 C.3     1  UNL1        0.0320
     34 C           1.7343   -0.0430   -3.8010 C.2     1  UNL1        0.0862
     35 O           2.9603    0.1200   -3.5704 O.co2   1  UNL1       -0.5433
     36 OXT         1.2006    0.4975   -4.9649 O.co2   1  UNL1       -0.5433
@<TRIPOS>UNITY_ATOM_ATTR
24 1
charge 1
36 1
charge -1
@<TRIPOS>BOND
     1     1     2    1
     2     2     3    1
     3     3     4    2
     4     4     5    1
     5     5     6   ar
     6     6     7   ar
     7     7     8   ar
     8     8     9   ar
     9     8    10    1
    10     4    11    1
    11    11    12    2
    12    11    13   am
    13    14    13    1
    14    14    15    1
    15    15    16    1
    16    16    17   am
    17    17    18    2
    18    16    19    1
    19    19    20    2
    20    20    21    1
    21    21    22    1
    22    20    23    1
    23    23    24    1
    24    24    25   ar
    25    25    26   ar
    26    26    27   ar
    27    27    28   ar
    28    28    29   ar
    29    29    30    1
    30    30    31    1
    31    31    32    1
    32    32    33    1
    33    19    34    1
    34    34    35   ar
    35    34    36   ar
    36     9     5   ar
    37    17    14    1
    38    15    22    1
    39    29    24   ar
    40    33    28    1
@<TRIPOS>MOLECULE
CeftarolineFosamil_Cephalosporins5_Active
 43 47 0 0 0
SMALL
GASTEIGER

@<TRIPOS>ATOM
      1 C           3.8312    4.7955   -5.6833 C.3     1  UNL1        0.0543
      2 C           4.3307    3.3862   -5.4456 C.3     1  UNL1        0.2386
      3 O           3.9113    2.9474   -4.1674 O.2     1  UNL1       -0.3771
      4 N           4.2506    1.6890   -3.7245 N.2     1  UNL1       -0.0751
      5 C           3.9097    1.2189   -2.5588 C.2     1  UNL1        0.2102
      6 C           4.3329   -0.1633   -2.2338 C.ar    1  UNL1        0.1970
      7 N           4.8921   -0.9662   -3.1867 N.ar    1  UNL1       -0.1853
      8 S           5.2279   -2.4016   -2.4184 S.2     1  UNL1        0.0514
      9 C           4.6640   -1.9606   -0.9252 C.ar    1  UNL1        0.2075
     10 N           4.2022   -0.6946   -0.9760 N.ar    1  UNL1       -0.2003
     11 N           4.6779   -2.7807    0.2420 N.pl3   1  UNL1       -0.1139
     12 P           4.0387   -2.2241    1.7759 P.3     1  UNL1        0.5019
     13 O           4.2535   -3.2896    2.8257 O.2     1  UNL1       -0.2298
     14 O           4.8371   -0.8080    2.2410 O.3     1  UNL1       -0.1211
     15 O           2.3845   -1.9165    1.6196 O.3     1  UNL1       -0.1211
     16 C           3.1056    2.0289   -1.5974 C.2     1  UNL1        0.2893
     17 O           2.8326    3.2343   -1.8468 O.2     1  UNL1       -0.2665
     18 N           2.6174    1.4423   -0.3884 N.am    1  UNL1       -0.1899
     19 CA          1.6905    2.1327    0.5014 C.3     1  UNL1        0.2005
     20 C           0.3090    1.7834    0.2518 C.3     1  UNL1        0.1569
     21 N           0.2213    0.9312    1.4131 N.am    1  UNL1       -0.2459
     22 C           1.5835    1.3684    1.7859 C.2     1  UNL1        0.2525
     23 O           2.3591    1.1360    2.7493 O.2     1  UNL1       -0.2726
     24 CA         -0.5096   -0.2698    1.6431 C.2     1  UNL1        0.0714
     25 C          -0.6441   -1.1033    0.5937 C.2     1  UNL1        0.0349
     26 C           0.1545   -0.8353   -0.6518 C.3     1  UNL1        0.0933
     27 S          -0.1073    0.8607   -1.2965 S.3     1  UNL1       -0.1132
     28 S          -1.6834   -2.5680    0.6009 S.3     1  UNL1       -0.0637
     29 C          -3.0978   -1.6622   -0.0089 C.ar    1  UNL1        0.1402
     30 N          -3.9835   -1.0343    0.7878 N.ar    1  UNL1       -0.2317
     31 C          -4.9625   -0.4168    0.0686 C.ar    1  UNL1        0.0893
     32 C          -4.8632   -0.5482   -1.3214 C.ar    1  UNL1        0.0565
     33 S          -3.4896   -1.4752   -1.6252 S.2     1  UNL1       -0.0595
     34 C          -6.0429    0.3424    0.7266 C.ar    1  UNL1        0.0304
     35 C          -7.0849    0.9036   -0.0231 C.ar    1  UNL1        0.0773
     36 C          -8.0941    1.6186    0.6255 C.ar    1  UNL1        0.2904
     37 N          -8.0644    1.7736    1.9763 N.ar    1  UNL1       -0.1534
     38 C          -7.0639    1.2380    2.7262 C.ar    1  UNL1        0.2904
     39 C          -6.0383    0.5124    2.1164 C.ar    1  UNL1        0.0773
     40 C          -9.1204    2.5229    2.6296 C.3     1  UNL1        0.4085
     41 C          -1.0856   -0.4993    2.9870 C.2     1  UNL1        0.0868
     42 O          -1.0780    0.4364    3.8292 O.co2   1  UNL1       -0.5433
     43 OXT        -1.6044   -1.7319    3.3628 O.co2   1  UNL1       -0.5433
@<TRIPOS>UNITY_ATOM_ATTR
37 1
charge 1
43 1
charge -1
@<TRIPOS>BOND
     1     1     2    1
     2     2     3    1
     3     3     4    1
     4     4     5    2
     5     5     6    1
     6     6     7   ar
     7     7     8   ar
     8     8     9   ar
     9     9    10   ar
    10     9    11    1
    11    11    12    1
    12    12    13    2
    13    12    14    1
    14    12    15    1
    15     5    16    1
    16    16    17    2
    17    16    18   am
    18    19    18    1
    19    19    20    1
    20    20    21    1
    21    21    22   am
    22    22    23    2
    23    21    24    1
    24    24    25    2
    25    25    26    1
    26    26    27    1
    27    25    28    1
    28    28    29    1
    29    29    30   ar
    30    30    31   ar
    31    31    32   ar
    32    32    33   ar
    33    31    34    1
    34    34    35   ar
    35    35    36   ar
    36    36    37   ar
    37    37    38   ar
    38    38    39   ar
    39    37    40    1
    40    24    41    1
    41    41    42   ar
    42    41    43   ar
    43    10     6   ar
    44    22    19    1
    45    20    27    1
    46    33    29   ar
    47    39    34   ar
@<TRIPOS>MOLECULE
Ceftolozane_Cephalosporins5_Active
 45 48 0 0 0
SMALL
GASTEIGER

@<TRIPOS>ATOM
      1 C          -0.5819    1.7813    3.8352 C.3     1  UNL1        0.0583
      2 C          -1.7967    2.1223    2.9940 C.3     1  UNL1        0.2530
      3 C          -1.5472    3.4498    2.2942 C.3     1  UNL1        0.0583
      4 C          -2.9969    2.2370    3.8948 C.2     1  UNL1        0.4027
      5 O          -3.9314    1.3945    3.8333 O.co2   1  UNL1       -0.2417
      6 O          -3.0756    3.2706    4.8226 O.co2   1  UNL1       -0.2417
      7 O          -1.9760    1.0990    2.0193 O.2     1  UNL1       -0.3735
      8 N          -2.9687    1.1850    1.0656 N.2     1  UNL1       -0.0748
      9 C          -3.1538    0.2752    0.1542 C.2     1  UNL1        0.2102
     10 C          -4.2748    0.4507   -0.7908 C.ar    1  UNL1        0.1971
     11 N          -4.4227   -0.3439   -1.8893 N.ar    1  UNL1       -0.1853
     12 S          -5.7848    0.2176   -2.6616 S.2     1  UNL1        0.0526
     13 C          -6.1265    1.4331   -1.5918 C.ar    1  UNL1        0.2193
     14 N          -5.2050    1.4431   -0.6095 N.ar    1  UNL1       -0.1993
     15 N          -7.2211    2.3376   -1.6748 N.pl3   1  UNL1       -0.0982
     16 C          -2.2706   -0.9116    0.0669 C.2     1  UNL1        0.2893
     17 O          -1.0671   -0.8240    0.4304 O.2     1  UNL1       -0.2665
     18 N          -2.8005   -2.1573   -0.4178 N.am    1  UNL1       -0.1899
     19 CA         -2.1037   -3.4311   -0.6536 C.3     1  UNL1        0.2005
     20 C          -1.2585   -3.4414   -1.8255 C.3     1  UNL1        0.1568
     21 N          -0.0433   -3.5062   -1.0546 N.am    1  UNL1       -0.2465
     22 C          -0.8613   -3.5915    0.1752 C.2     1  UNL1        0.2525
     23 O          -0.6145   -3.6998    1.4043 O.2     1  UNL1       -0.2726
     24 CA          1.2917   -3.1422   -1.3798 C.2     1  UNL1        0.0681
     25 C           1.4385   -2.0509   -2.1552 C.2     1  UNL1        0.0613
     26 C           0.2575   -1.1366   -2.3571 C.3     1  UNL1        0.0894
     27 S          -1.2631   -1.9815   -2.9588 S.3     1  UNL1       -0.1139
     28 C           2.7335   -1.6486   -2.7985 C.3     1  UNL1        0.3734
     29 N           3.5617   -0.8350   -1.9094 N.ar    1  UNL1       -0.0696
     30 C           3.1322    0.2189   -1.1706 C.ar    1  UNL1        0.3348
     31 C           4.2589    0.7836   -0.5870 C.ar    1  UNL1        0.1847
     32 C           5.3317    0.0496   -1.0313 C.ar    1  UNL1        0.2265
     33 N           4.8842   -0.9175   -1.8451 N.ar    1  UNL1       -0.1153
     34 C           5.7097   -1.8525   -2.5984 C.3     1  UNL1        0.2036
     35 N           6.7048    0.3133   -0.7557 N.pl3   1  UNL1       -0.1019
     36 N           4.3331    1.9500    0.2404 N.am    1  UNL1       -0.1515
     37 C           3.2260    2.7639    0.6412 C.2     1  UNL1        0.3438
     38 O           2.0456    2.4477    0.3287 O.2     1  UNL1       -0.2488
     39 N           3.4792    3.9499    1.3974 N.am    1  UNL1       -0.1853
     40 C           2.4196    4.8277    1.8753 C.3     1  UNL1        0.1373
     41 C           1.6978    4.2007    3.0594 C.3     1  UNL1        0.1327
     42 N           2.6021    4.0975    4.1942 N.3     1  UNL1       -0.1294
     43 C           2.3930   -4.0277   -0.9380 C.2     1  UNL1        0.0862
     44 O           2.1183   -5.1191   -0.3689 O.co2   1  UNL1       -0.5433
     45 OXT         3.7267   -3.6814   -1.1104 O.co2   1  UNL1       -0.5433
@<TRIPOS>UNITY_ATOM_ATTR
29 1
charge 1
45 1
charge -1
@<TRIPOS>BOND
     1     1     2    1
     2     2     3    1
     3     2     4    1
     4     4     5   ar
     5     4     6   ar
     6     2     7    1
     7     7     8    1
     8     8     9    2
     9     9    10    1
    10    10    11   ar
    11    11    12   ar
    12    12    13   ar
    13    13    14   ar
    14    13    15    1
    15     9    16    1
    16    16    17    2
    17    16    18   am
    18    19    18    1
    19    19    20    1
    20    20    21    1
    21    21    22   am
    22    22    23    2
    23    21    24    1
    24    24    25    2
    25    25    26    1
    26    26    27    1
    27    25    28    1
    28    28    29    1
    29    29    30   ar
    30    30    31   ar
    31    31    32   ar
    32    32    33   ar
    33    33    34    1
    34    32    35    1
    35    31    36    1
    36    36    37   am
    37    37    38    2
    38    37    39   am
    39    39    40    1
    40    40    41    1
    41    41    42    1
    42    24    43    1
    43    43    44   ar
    44    43    45   ar
    45    14    10   ar
    46    22    19    1
    47    20    27    1
    48    33    29   ar
@<TRIPOS>MOLECULE
Ceftobiprole_Cephalosporins5_Active
 36 40 0 0 0
SMALL
GASTEIGER

@<TRIPOS>ATOM
      1 C          -5.1306    4.9628    2.9898 C.3     1  UNL1        0.0401
      2 C          -5.1763    6.3810    3.5041 C.3     1  UNL1        0.0905
      3 N          -4.0187    6.5691    4.3643 N.3     1  UNL1       -0.2162
      4 C          -3.7324    5.2599    4.9352 C.3     1  UNL1        0.1084
      5 C          -4.3461    4.2057    4.0327 C.3     1  UNL1        0.0944
      6 N          -3.3071    3.3982    3.4038 N.am    1  UNL1       -0.2762
      7 C          -2.2314    3.9056    2.5564 C.3     1  UNL1        0.0985
      8 C          -1.3961    2.6795    2.1330 C.3     1  UNL1        0.0524
      9 C          -2.0600    1.5096    2.7903 C.2     1  UNL1        0.0328
     10 C          -1.7163    0.2193    2.7095 C.2     1  UNL1       -0.0017
     11 C          -0.5672   -0.3623    1.9745 C.2     1  UNL1        0.0088
     12 CA         -0.4008   -1.7084    1.9007 C.2     1  UNL1        0.1319
     13 N           0.7434   -2.1992    1.1980 N.am    1  UNL1       -0.2419
     14 C           1.8711   -1.5172    0.6223 C.3     1  UNL1        0.1570
     15 CA          2.2156   -2.6281   -0.2411 C.3     1  UNL1        0.2005
     16 C           1.1037   -3.3957    0.4061 C.2     1  UNL1        0.2526
     17 O           0.6374   -4.5580    0.2803 O.2     1  UNL1       -0.2726
     18 N           1.8817   -2.3893   -1.6404 N.am    1  UNL1       -0.1899
     19 C           2.8837   -2.1837   -2.6392 C.2     1  UNL1        0.2894
     20 O           4.1009   -2.2147   -2.3108 O.2     1  UNL1       -0.2665
     21 C           2.5012   -1.9180   -4.0516 C.2     1  UNL1        0.2149
     22 N           1.3447   -2.2826   -4.5240 N.2     1  UNL1       -0.0215
     23 O           0.4009   -2.9557   -3.7818 O.2     1  UNL1       -0.1429
     24 C           3.4358   -1.2296   -4.9689 C.ar    1  UNL1        0.1972
     25 N           4.6145   -0.6942   -4.5347 N.ar    1  UNL1       -0.1853
     26 S           5.3176   -0.0168   -5.8802 S.2     1  UNL1        0.0526
     27 C           4.1165   -0.4188   -6.9468 C.ar    1  UNL1        0.2193
     28 N           3.1403   -1.0840   -6.3007 N.ar    1  UNL1       -0.1993
     29 N           4.0957   -0.1132   -8.3356 N.pl3   1  UNL1       -0.0982
     30 S           1.2438    0.0135   -0.1508 S.3     1  UNL1       -0.1138
     31 C           0.5101    0.5629    1.4376 C.3     1  UNL1        0.0868
     32 C          -1.3686   -2.6957    2.4438 C.2     1  UNL1        0.4009
     33 O          -2.5582   -2.3776    2.7084 O.co2   1  UNL1       -0.2392
     34 OXT        -0.9662   -4.0089    2.6499 O.co2   1  UNL1       -0.2392
     35 C          -3.1943    1.9976    3.5309 C.2     1  UNL1        0.2451
     36 O          -3.9886    1.2872    4.2042 O.2     1  UNL1       -0.2703
@<TRIPOS>BOND
     1     1     2    1
     2     2     3    1
     3     3     4    1
     4     4     5    1
     5     5     6    1
     6     6     7    1
     7     7     8    1
     8     8     9    1
     9     9    10    2
    10    10    11    1
    11    11    12    2
    12    12    13    1
    13    13    14    1
    14    14    15    1
    15    15    16    1
    16    16    17    2
    17    15    18    1
    18    18    19   am
    19    19    20    2
    20    19    21    1
    21    21    22    2
    22    22    23    1
    23    21    24    1
    24    24    25   ar
    25    25    26   ar
    26    26    27   ar
    27    27    28   ar
    28    27    29    1
    29    14    30    1
    30    30    31    1
    31    12    32    1
    32    32    33   ar
    33    32    34   ar
    34     9    35    1
    35    35    36    2
    36     5     1    1
    37    35     6   am
    38    31    11    1
    39    16    13   am
    40    28    24   ar
@<TRIPOS>MOLECULE
Aztreonam_Monobactams_Active
 28 29 0 0 0
SMALL
GASTEIGER

@<TRIPOS>ATOM
      1 C           3.3938   -2.8293    0.4045 C.3     1  UNL1        0.0259
      2 C           2.7002   -1.4816    0.3040 C.3     1  UNL1        0.1298
      3 C           1.6908   -1.3656    1.3179 C.3     1  UNL1        0.1930
      4 C           2.4966   -0.2737    1.9469 C.2     1  UNL1        0.2673
      5 O           2.3585    0.4798    2.9453 O.2     1  UNL1       -0.2713
      6 N           3.5261   -0.4525    0.9029 N.am    1  UNL1       -0.1363
      7 S           5.0407    0.2895    0.5315 S.3     1  UNL1        0.1996
      8 O           5.2962    0.1908   -0.9456 O.2     1  UNL1       -0.1240
      9 O           6.1409   -0.4062    1.2812 O.2     1  UNL1       -0.1240
     10 O           4.9905    1.9093    0.9723 O.3     1  UNL1       -0.0291
     11 N           0.4261   -0.8652    0.7712 N.am    1  UNL1       -0.1908
     12 C           0.2302    0.3005   -0.0469 C.2     1  UNL1        0.2877
     13 O           1.2150    1.0186   -0.3697 O.2     1  UNL1       -0.2665
     14 C          -1.1335    0.6689   -0.5091 C.2     1  UNL1        0.1921
     15 N          -2.0553   -0.2337   -0.6739 N.2     1  UNL1       -0.0764
     16 O          -1.8384   -1.5806   -0.4665 O.2     1  UNL1       -0.3736
     17 C          -2.8806   -2.5360   -0.6405 C.3     1  UNL1        0.2530
     18 C          -2.2911   -3.9232   -0.4734 C.3     1  UNL1        0.0583
     19 C          -3.4532   -2.4200   -2.0448 C.3     1  UNL1        0.0583
     20 C          -3.9679   -2.3352    0.3796 C.2     1  UNL1        0.4027
     21 O          -5.0018   -3.0556    0.3548 O.co2   1  UNL1       -0.2417
     22 O          -3.8382   -1.3682    1.3699 O.co2   1  UNL1       -0.2417
     23 C          -1.4850    2.0765   -0.8046 C.ar    1  UNL1        0.1151
     24 C          -0.6489    3.1610   -0.5115 C.ar    1  UNL1        0.0591
     25 S          -1.4600    4.5581   -0.9936 S.2     1  UNL1       -0.0478
     26 C          -2.8082    3.7300   -1.5343 C.ar    1  UNL1        0.2006
     27 N          -2.6836    2.4006   -1.3672 N.ar    1  UNL1       -0.2196
     28 N          -3.9599    4.3428   -2.1006 N.pl3   1  UNL1       -0.0998
@<TRIPOS>BOND
     1     2     1    1
     2     2     3    1
     3     3     4    1
     4     4     5    2
     5     4     6   am
     6     6     7    1
     7     7     8    2
     8     7     9    2
     9     7    10    1
    10     3    11    1
    11    11    12   am
    12    12    13    2
    13    12    14    1
    14    14    15    2
    15    15    16    1
    16    16    17    1
    17    17    18    1
    18    17    19    1
    19    17    20    1
    20    20    21   ar
    21    20    22   ar
    22    14    23    1
    23    23    24   ar
    24    24    25   ar
    25    25    26   ar
    26    26    27   ar
    27    26    28    1
    28     6     2    1
    29    27    23   ar
@<TRIPOS>MOLECULE
Tigemonam_Monobactams_Active
 28 29 0 0 0
SMALL
GASTEIGER

@<TRIPOS>ATOM
      1 C           2.7806   -1.1618    2.4518 C.3     1  UNL1        0.0248
      2 C           1.9268   -1.2009    1.1967 C.3     1  UNL1        0.1152
      3 C           1.4714    0.1239    0.8263 C.3     1  UNL1        0.1924
      4 C           2.2978    0.0017   -0.4204 C.2     1  UNL1        0.2709
      5 O           2.5179    0.7347   -1.4194 O.2     1  UNL1       -0.2708
      6 N           2.7401   -1.3454    0.0068 N.am    1  UNL1       -0.1446
      7 O           3.4835   -2.3331   -0.5519 O.3     1  UNL1       -0.1381
      8 S           5.0748   -2.0576   -0.0622 S.3     1  UNL1        0.0200
      9 O           5.2900   -2.6363    1.3076 O.2     1  UNL1       -0.3435
     10 O           6.0055   -2.7289   -1.0315 O.2     1  UNL1       -0.3435
     11 O           5.4134   -0.4107   -0.0375 O.3     1  UNL1       -0.2667
     12 N           0.0543    0.1700    0.4757 N.am    1  UNL1       -0.1908
     13 C          -0.6052    1.3783    0.0867 C.2     1  UNL1        0.2877
     14 O           0.0472    2.4570    0.0512 O.2     1  UNL1       -0.2665
     15 C          -2.0475    1.3676   -0.2784 C.2     1  UNL1        0.1921
     16 N          -2.8514    0.4490    0.1726 N.2     1  UNL1       -0.0761
     17 O          -2.4484   -0.5549    1.0235 O.2     1  UNL1       -0.3646
     18 C          -3.3809   -1.5187    1.4765 C.3     1  UNL1        0.3510
     19 C          -2.6917   -2.5014    2.3536 C.2     1  UNL1        0.4114
     20 O          -2.3341   -3.6150    1.8904 O.co2   1  UNL1       -0.2414
     21 O          -2.4084   -2.1759    3.6731 O.co2   1  UNL1       -0.2414
     22 C          -2.6197    2.4097   -1.1619 C.ar    1  UNL1        0.1151
     23 C          -1.8459    3.3485   -1.8555 C.ar    1  UNL1        0.0591
     24 S          -2.9080    4.3086   -2.7456 S.2     1  UNL1       -0.0478
     25 C          -4.2703    3.4946   -2.2193 C.ar    1  UNL1        0.2006
     26 N          -3.9639    2.4940   -1.3733 N.ar    1  UNL1       -0.2196
     27 N          -5.6008    3.8061   -2.6135 N.pl3   1  UNL1       -0.0998
     28 C           0.8729   -2.3030    1.2794 C.3     1  UNL1        0.0248
@<TRIPOS>BOND
     1     1     2    1
     2     2     3    1
     3     3     4    1
     4     4     5    2
     5     4     6   am
     6     6     7    1
     7     7     8    1
     8     8     9    2
     9     8    10    2
    10     8    11    1
    11     3    12    1
    12    12    13   am
    13    13    14    2
    14    13    15    1
    15    15    16    2
    16    16    17    1
    17    17    18    1
    18    18    19    1
    19    19    20   ar
    20    19    21   ar
    21    15    22    1
    22    22    23   ar
    23    23    24   ar
    24    24    25   ar
    25    25    26   ar
    26    25    27    1
    27     2    28    1
    28     6     2    1
    29    26    22   ar
@<TRIPOS>MOLECULE
Carumonam_Monobactams_Active
 30 31 0 0 0
SMALL
GASTEIGER

@<TRIPOS>ATOM
      1 C          -3.9672    2.2682   -1.3879 C.ar    1  UNL1        0.0591
      2 C          -3.7182    1.4148   -0.3059 C.ar    1  UNL1        0.1151
      3 N          -4.7331    1.3077    0.5978 N.ar    1  UNL1       -0.2196
      4 C          -5.7851    2.0726    0.2526 C.ar    1  UNL1        0.2006
      5 S          -5.5143    2.9026   -1.1735 S.2     1  UNL1       -0.0478
      6 N          -6.9807    2.1506    1.0189 N.pl3   1  UNL1       -0.0998
      7 C          -2.4621    0.6501   -0.1422 C.2     1  UNL1        0.1921
      8 N          -2.3936   -0.2167    0.8256 N.2     1  UNL1       -0.0761
      9 O          -1.2547   -0.9430    1.0909 O.2     1  UNL1       -0.3646
     10 C          -1.2289   -1.8743    2.1556 C.3     1  UNL1        0.3510
     11 C           0.1228   -2.4886    2.2348 C.2     1  UNL1        0.4114
     12 O           0.9662   -2.0488    3.0585 O.co2   1  UNL1       -0.2414
     13 O           0.4710   -3.5153    1.3676 O.co2   1  UNL1       -0.2414
     14 C          -1.3038    0.8780   -1.0429 C.2     1  UNL1        0.2877
     15 O          -1.1116    2.0150   -1.5529 O.2     1  UNL1       -0.2665
     16 N          -0.3996   -0.1915   -1.3334 N.am    1  UNL1       -0.1907
     17 C           0.8551    0.0068   -2.0531 C.3     1  UNL1        0.1967
     18 C           1.9865    0.2927   -1.1871 C.3     1  UNL1        0.1733
     19 N           2.5902   -1.0006   -1.4227 N.am    1  UNL1       -0.1326
     20 C           1.4750   -1.3254   -2.3361 C.2     1  UNL1        0.2675
     21 O           1.1697   -2.3157   -3.0500 O.2     1  UNL1       -0.2713
     22 S           4.0183   -1.8158   -0.8926 S.3     1  UNL1        0.1998
     23 O           4.3869   -2.8763   -1.8906 O.2     1  UNL1       -0.1240
     24 O           5.1462   -0.8293   -0.7845 O.2     1  UNL1       -0.1240
     25 O           3.7391   -2.5249    0.6039 O.3     1  UNL1       -0.0291
     26 C           1.6674    0.4702    0.2994 C.3     1  UNL1        0.2341
     27 O           2.8605    0.7336    1.0225 O.3     1  UNL1       -0.4305
     28 C           3.0306    1.9058    1.7582 C.2     1  UNL1        0.4411
     29 O           2.1213    2.7772    1.8046 O.2     1  UNL1       -0.2228
     30 N           4.2460    2.1200    2.4647 N.am    1  UNL1       -0.0475
@<TRIPOS>BOND
     1     1     2   ar
     2     2     3   ar
     3     3     4   ar
     4     4     5   ar
     5     4     6    1
     6     2     7    1
     7     7     8    2
     8     8     9    1
     9     9    10    1
    10    10    11    1
    11    11    12   ar
    12    11    13   ar
    13     7    14    1
    14    14    15    2
    15    14    16   am
    16    17    16    1
    17    17    18    1
    18    18    19    1
    19    19    20   am
    20    20    21    2
    21    19    22    1
    22    22    23    2
    23    22    24    2
    24    22    25    1
    25    18    26    1
    26    26    27    1
    27    27    28    1
    28    28    29    2
    29    28    30   am
    30     5     1   ar
    31    20    17    1
@<TRIPOS>MOLECULE
NocardicinA_Monobactams_Active
 36 38 0 0 0
SMALL
GASTEIGER

@<TRIPOS>ATOM
      1 C          -1.8615    0.2356   -1.6157 C.3     1  UNL1        0.1252
      2 CA         -1.7088    1.6058   -1.9992 C.3     1  UNL1        0.1913
      3 C          -2.7253    1.9618   -0.9617 C.2     1  UNL1        0.2479
      4 O          -3.2619    3.0298   -0.5676 O.2     1  UNL1       -0.2729
      5 N          -2.8184    0.5413   -0.5747 N.am    1  UNL1       -0.2642
      6 CA         -3.5134   -0.1979    0.4720 C.3     1  UNL1        0.2021
      7 C          -2.8986   -1.5479    0.6953 C.ar    1  UNL1        0.0068
      8 C          -2.9642   -2.5541   -0.2814 C.ar    1  UNL1        0.0012
      9 C          -2.3523   -3.7910   -0.0580 C.ar    1  UNL1        0.0418
     10 C          -1.6693   -4.0270    1.1387 C.ar    1  UNL1        0.1957
     11 C          -1.5980   -3.0263    2.1120 C.ar    1  UNL1        0.0418
     12 C          -2.2093   -1.7889    1.8890 C.ar    1  UNL1        0.0012
     13 O          -1.0592   -5.2539    1.3593 O.3     1  UNL1       -0.2866
     14 C          -4.9779   -0.2823    0.1826 C.2     1  UNL1        0.3867
     15 O          -5.8091   -0.0427    1.0962 O.co2   1  UNL1       -0.2434
     16 OXT        -5.4274   -0.6516   -1.0796 O.co2   1  UNL1       -0.2434
     17 N          -0.3974    2.0645   -1.5708 N.am    1  UNL1       -0.1909
     18 C           0.1398    3.3495   -1.8932 C.2     1  UNL1        0.2863
     19 O          -0.5161    4.1226   -2.6428 O.2     1  UNL1       -0.2666
     20 C           1.4616    3.7652   -1.3366 C.2     1  UNL1        0.1788
     21 N           1.8546    5.0064   -1.3820 N.2     1  UNL1       -0.0247
     22 O           1.1081    6.0200   -1.9390 O.2     1  UNL1       -0.1430
     23 C           2.3530    2.7783   -0.6712 C.ar    1  UNL1        0.0257
     24 C           3.3190    3.2102    0.2529 C.ar    1  UNL1        0.0049
     25 C           4.1410    2.2879    0.9092 C.ar    1  UNL1        0.0369
     26 C           4.0114    0.9199    0.6515 C.ar    1  UNL1        0.1386
     27 C           3.0710    0.4852   -0.2932 C.ar    1  UNL1        0.0369
     28 C           2.2546    1.4066   -0.9487 C.ar    1  UNL1        0.0049
     29 O           4.8176    0.0123    1.3479 O.3     1  UNL1       -0.4754
     30 C           4.6396   -1.3978    1.2605 C.3     1  UNL1        0.2075
     31 C           3.4109   -1.8148    2.0554 C.3     1  UNL1        0.0779
     32 CA          2.9625   -3.2118    1.6592 C.3     1  UNL1        0.1980
     33 C           2.2835   -3.1911    0.3283 C.2     1  UNL1        0.3820
     34 O           2.7519   -3.8696   -0.6219 O.co2   1  UNL1       -0.2440
     35 OXT         1.1395   -2.4262    0.1319 O.co2   1  UNL1       -0.2440
     36 N           2.0485   -3.7280    2.6623 N.3     1  UNL1       -0.1207
@<TRIPOS>BOND
     1     1     2    1
     2     2     3    1
     3     3     4    2
     4     3     5   am
     5     5     6    1
     6     6     7    1
     7     7     8   ar
     8     8     9   ar
     9     9    10   ar
    10    10    11   ar
    11    11    12   ar
    12    10    13    1
    13     6    14    1
    14    14    15   ar
    15    14    16   ar
    16     2    17    1
    17    17    18   am
    18    18    19    2
    19    18    20    1
    20    20    21    2
    21    21    22    1
    22    20    23    1
    23    23    24   ar
    24    24    25   ar
    25    25    26   ar
    26    26    27   ar
    27    27    28   ar
    28    26    29    1
    29    29    30    1
    30    30    31    1
    31    31    32    1
    32    32    33    1
    33    33    34   ar
    34    33    35   ar
    35    32    36    1
    36     5     1    1
    37    12     7   ar
    38    28    23   ar